data_image0
_cell_length_a       21.717
_cell_length_b       23.369
_cell_length_c       15.071
_cell_angle_alpha    90
_cell_angle_beta     90
_cell_angle_gamma    90

_symmetry_space_group_name_H-M    "P 1"
_symmetry_int_tables_number       1

loop_
  _symmetry_equiv_pos_as_xyz
  'x, y, z'

loop_
  _atom_site_label
  _atom_site_occupancy
  _atom_site_fract_x
  _atom_site_fract_y
  _atom_site_fract_z
  _atom_site_thermal_displace_type
  _atom_site_B_iso_or_equiv
  _atom_site_type_symbol
  Cs1      1.0000 0.55817  0.52697  0.85943  Biso   1.000  Cs
  Cu1      1.0000 0.55865  0.68578  0.91513  Biso   1.000  Cu
  Si1      1.0000 0.69306  0.62504  0.72359  Biso   1.000  Si
  Si2      1.0000 0.56325  0.63730  0.67961  Biso   1.000  Si
  Si3      1.0000 0.43255  0.62408  0.71886  Biso   1.000  Si
  Si4      1.0000 0.42346  0.62932  0.92011  Biso   1.000  Si
  Si5      1.0000 0.69322  0.62921  0.92514  Biso   1.000  Si
  O1       1.0000 0.69300  0.69200  0.70360  Biso   1.000  O
  O2       1.0000 0.56240  0.69560  0.73720  Biso   1.000  O
  O3       1.0000 0.43250  0.69140  0.70420  Biso   1.000  O
  O4       1.0000 0.62300  0.59880  0.70760  Biso   1.000  O
  O5       1.0000 0.50310  0.59820  0.70390  Biso   1.000  O
  O6       1.0000 0.41170  0.60560  0.81970  Biso   1.000  O
  O7       1.0000 0.49520  0.63160  0.94410  Biso   1.000  O
  O8       1.0000 0.62040  0.63000  0.93800  Biso   1.000  O
  O9       1.0000 0.71360  0.60950  0.82500  Biso   1.000  O
  O10      1.0000 0.72160  0.69410  0.94180  Biso   1.000  O
  O11      1.0000 0.39320  0.69420  0.92810  Biso   1.000  O
  O12      1.0000 0.53280  0.56260  0.07890  Biso   1.000  O
  H1       1.0000 0.51590  0.58590  0.04320  Biso   1.000  H
  O13      1.0000 0.60070  0.43440  0.72380  Biso   1.000  O
  O14      1.0000 0.73280  0.63660  0.41030  Biso   1.000  O
  C1       1.0000 0.73230  0.57950  0.00250  Biso   1.000  C
  H2       1.0000 0.72510  0.59190  0.06370  Biso   1.000  H
  H3       1.0000 0.77670  0.57950  0.99040  Biso   1.000  H
  H4       1.0000 0.71590  0.54080  0.99430  Biso   1.000  H
  C2       1.0000 0.74600  0.58590  0.65010  Biso   1.000  C
  H5       1.0000 0.73770  0.59640  0.58830  Biso   1.000  H
  H6       1.0000 0.73990  0.54460  0.65780  Biso   1.000  H
  H7       1.0000 0.78860  0.59580  0.66510  Biso   1.000  H
  C3       1.0000 0.56530  0.65110  0.55920  Biso   1.000  C
  H8       1.0000 0.57180  0.61500  0.52750  Biso   1.000  H
  H9       1.0000 0.59900  0.67750  0.54570  Biso   1.000  H
  H10      1.0000 0.52610  0.66810  0.54050  Biso   1.000  H
  C4       1.0000 0.38040  0.58530  0.64300  Biso   1.000  C
  H11      1.0000 0.33760  0.59500  0.65700  Biso   1.000  H
  H12      1.0000 0.38650  0.54400  0.65010  Biso   1.000  H
  H13      1.0000 0.38950  0.59620  0.58160  Biso   1.000  H
  C5       1.0000 0.38110  0.58080  0.99590  Biso   1.000  C
  H14      1.0000 0.33710  0.58980  0.99360  Biso   1.000  H
  H15      1.0000 0.39630  0.58600  0.05660  Biso   1.000  H
  H16      1.0000 0.38760  0.54110  0.97740  Biso   1.000  H
  H17      1.0000 0.40600  0.75650  0.10720  Biso   1.000  H
  H18      1.0000 0.47450  0.78050  0.09410  Biso   1.000  H
  H19      1.0000 0.46240  0.71300  0.09640  Biso   1.000  H
  H20      1.0000 0.62940  0.77750  0.09880  Biso   1.000  H
  H21      1.0000 0.69930  0.76090  0.12040  Biso   1.000  H
  H22      1.0000 0.64920  0.71160  0.10490  Biso   1.000  H
  C6       1.0000 0.58270  0.57460  0.12960  Biso   1.000  C
  H23      1.0000 0.59570  0.54010  0.16130  Biso   1.000  H
  H24      1.0000 0.57220  0.60460  0.17240  Biso   1.000  H
  H25      1.0000 0.61640  0.58790  0.09150  Biso   1.000  H
  C7       1.0000 0.76850  0.65460  0.33820  Biso   1.000  C
  H26      1.0000 0.81290  0.65320  0.35260  Biso   1.000  H
  H27      1.0000 0.75740  0.69390  0.32000  Biso   1.000  H
  C8       1.0000 0.75220  0.61110  0.26550  Biso   1.000  C
  H28      1.0000 0.71750  0.62500  0.22860  Biso   1.000  H
  H29      1.0000 0.78810  0.60340  0.22680  Biso   1.000  H
  C9       1.0000 0.73480  0.56020  0.31530  Biso   1.000  C
  H30      1.0000 0.70600  0.53630  0.28040  Biso   1.000  H
  H31      1.0000 0.77160  0.53710  0.32990  Biso   1.000  H
  C10      1.0000 0.70640  0.58010  0.39280  Biso   1.000  C
  H32      1.0000 0.71470  0.55380  0.44290  Biso   1.000  H
  H33      1.0000 0.66130  0.58290  0.38430  Biso   1.000  H
  C11      1.0000 0.61520  0.79760  0.33540  Biso   1.000  C
  H34      1.0000 0.64060  0.80690  0.28280  Biso   1.000  H
  H35      1.0000 0.61460  0.83130  0.37530  Biso   1.000  H
  C12      1.0000 0.55080  0.78180  0.30790  Biso   1.000  C
  H36      1.0000 0.52020  0.79690  0.35050  Biso   1.000  H
  H37      1.0000 0.54130  0.79690  0.24810  Biso   1.000  H
  C13      1.0000 0.59970  0.44710  0.63700  Biso   1.000  C
  H38      1.0000 0.62650  0.42030  0.60440  Biso   1.000  H
  H39      1.0000 0.61550  0.48640  0.62800  Biso   1.000  H
  C14      1.0000 0.53850  0.44310  0.60600  Biso   1.000  C
  H40      1.0000 0.53730  0.43520  0.54100  Biso   1.000  H
  H41      1.0000 0.51460  0.47820  0.61840  Biso   1.000  H
  C15      1.0000 0.51600  0.39500  0.65700  Biso   1.000  C
  H42      1.0000 0.51490  0.36000  0.61880  Biso   1.000  H
  H43      1.0000 0.47420  0.40240  0.67850  Biso   1.000  H
  C16      1.0000 0.55950  0.38470  0.73500  Biso   1.000  C
  H44      1.0000 0.53730  0.38570  0.79220  Biso   1.000  H
  H45      1.0000 0.58210  0.34800  0.72930  Biso   1.000  H
  C17      1.0000 0.61100  0.46200  0.62710  Biso   1.000  C
  H46      1.0000 0.63330  0.49880  0.63160  Biso   1.000  H
  H47      1.0000 0.63490  0.43570  0.58870  Biso   1.000  H
  C18      1.0000 0.54790  0.47070  0.59130  Biso   1.000  C
  H48      1.0000 0.54490  0.45560  0.53010  Biso   1.000  H
  H49      1.0000 0.53750  0.51200  0.59040  Biso   1.000  H
  C19      1.0000 0.50370  0.43800  0.65370  Biso   1.000  C
  H50      1.0000 0.47710  0.41150  0.61960  Biso   1.000  H
  H51      1.0000 0.47730  0.46490  0.68740  Biso   1.000  H
  C20      1.0000 0.54690  0.40440  0.71680  Biso   1.000  C
  H52      1.0000 0.52750  0.40020  0.77590  Biso   1.000  H
  H53      1.0000 0.55510  0.36570  0.69260  Biso   1.000  H
  Cs2      1.0000 0.94183  0.47303  0.35943  Biso   1.000  Cs
  Cu2      1.0000 0.94135  0.31422  0.41513  Biso   1.000  Cu
  Si6      1.0000 0.80694  0.37496  0.22359  Biso   1.000  Si
  Si7      1.0000 0.93675  0.36270  0.17961  Biso   1.000  Si
  Si8      1.0000 0.06745  0.37592  0.21886  Biso   1.000  Si
  Si9      1.0000 0.07654  0.37068  0.42011  Biso   1.000  Si
  Si10     1.0000 0.80678  0.37079  0.42514  Biso   1.000  Si
  O15      1.0000 0.80700  0.30800  0.20360  Biso   1.000  O
  O16      1.0000 0.93760  0.30440  0.23720  Biso   1.000  O
  O17      1.0000 0.06750  0.30860  0.20420  Biso   1.000  O
  O18      1.0000 0.87700  0.40120  0.20760  Biso   1.000  O
  O19      1.0000 0.99690  0.40180  0.20390  Biso   1.000  O
  O20      1.0000 0.08830  0.39440  0.31970  Biso   1.000  O
  O21      1.0000 0.00480  0.36840  0.44410  Biso   1.000  O
  O22      1.0000 0.87960  0.37000  0.43800  Biso   1.000  O
  O23      1.0000 0.78640  0.39050  0.32500  Biso   1.000  O
  O24      1.0000 0.77840  0.30590  0.44180  Biso   1.000  O
  O25      1.0000 0.10680  0.30580  0.42810  Biso   1.000  O
  O26      1.0000 0.96720  0.43740  0.57890  Biso   1.000  O
  H54      1.0000 0.98410  0.41410  0.54320  Biso   1.000  H
  O27      1.0000 0.89930  0.56560  0.22380  Biso   1.000  O
  O28      1.0000 0.76720  0.36340  0.91030  Biso   1.000  O
  C21      1.0000 0.76770  0.42050  0.50250  Biso   1.000  C
  H55      1.0000 0.77490  0.40810  0.56370  Biso   1.000  H
  H56      1.0000 0.72330  0.42050  0.49040  Biso   1.000  H
  H57      1.0000 0.78410  0.45920  0.49430  Biso   1.000  H
  C22      1.0000 0.75400  0.41410  0.15010  Biso   1.000  C
  H58      1.0000 0.76230  0.40360  0.08830  Biso   1.000  H
  H59      1.0000 0.76010  0.45540  0.15780  Biso   1.000  H
  H60      1.0000 0.71140  0.40420  0.16510  Biso   1.000  H
  C23      1.0000 0.93470  0.34890  0.05920  Biso   1.000  C
  H61      1.0000 0.92820  0.38500  0.02750  Biso   1.000  H
  H62      1.0000 0.90100  0.32250  0.04570  Biso   1.000  H
  H63      1.0000 0.97390  0.33190  0.04050  Biso   1.000  H
  C24      1.0000 0.11960  0.41470  0.14300  Biso   1.000  C
  H64      1.0000 0.16240  0.40500  0.15700  Biso   1.000  H
  H65      1.0000 0.11350  0.45600  0.15010  Biso   1.000  H
  H66      1.0000 0.11050  0.40380  0.08160  Biso   1.000  H
  C25      1.0000 0.11890  0.41920  0.49590  Biso   1.000  C
  H67      1.0000 0.16290  0.41020  0.49360  Biso   1.000  H
  H68      1.0000 0.10370  0.41400  0.55660  Biso   1.000  H
  H69      1.0000 0.11240  0.45890  0.47740  Biso   1.000  H
  H70      1.0000 0.09400  0.24350  0.60720  Biso   1.000  H
  H71      1.0000 0.02550  0.21950  0.59410  Biso   1.000  H
  H72      1.0000 0.03760  0.28700  0.59640  Biso   1.000  H
  H73      1.0000 0.87060  0.22250  0.59880  Biso   1.000  H
  H74      1.0000 0.80070  0.23910  0.62040  Biso   1.000  H
  H75      1.0000 0.85080  0.28840  0.60490  Biso   1.000  H
  C26      1.0000 0.91730  0.42540  0.62960  Biso   1.000  C
  H76      1.0000 0.90430  0.45990  0.66130  Biso   1.000  H
  H77      1.0000 0.92780  0.39540  0.67240  Biso   1.000  H
  H78      1.0000 0.88360  0.41210  0.59150  Biso   1.000  H
  C27      1.0000 0.73150  0.34540  0.83820  Biso   1.000  C
  H79      1.0000 0.68710  0.34680  0.85260  Biso   1.000  H
  H80      1.0000 0.74260  0.30610  0.82000  Biso   1.000  H
  C28      1.0000 0.74780  0.38890  0.76550  Biso   1.000  C
  H81      1.0000 0.78250  0.37500  0.72860  Biso   1.000  H
  H82      1.0000 0.71190  0.39660  0.72680  Biso   1.000  H
  C29      1.0000 0.76520  0.43980  0.81530  Biso   1.000  C
  H83      1.0000 0.79400  0.46370  0.78040  Biso   1.000  H
  H84      1.0000 0.72840  0.46290  0.82990  Biso   1.000  H
  C30      1.0000 0.79360  0.41990  0.89280  Biso   1.000  C
  H85      1.0000 0.78530  0.44620  0.94290  Biso   1.000  H
  H86      1.0000 0.83870  0.41710  0.88430  Biso   1.000  H
  C31      1.0000 0.88480  0.20240  0.83540  Biso   1.000  C
  H87      1.0000 0.85940  0.19310  0.78280  Biso   1.000  H
  H88      1.0000 0.88540  0.16870  0.87530  Biso   1.000  H
  C32      1.0000 0.94920  0.21820  0.80790  Biso   1.000  C
  H89      1.0000 0.97980  0.20310  0.85050  Biso   1.000  H
  H90      1.0000 0.95870  0.20310  0.74810  Biso   1.000  H
  C33      1.0000 0.90030  0.55290  0.13700  Biso   1.000  C
  H91      1.0000 0.87350  0.57970  0.10440  Biso   1.000  H
  H92      1.0000 0.88450  0.51360  0.12800  Biso   1.000  H
  C34      1.0000 0.96150  0.55690  0.10600  Biso   1.000  C
  H93      1.0000 0.96270  0.56480  0.04100  Biso   1.000  H
  H94      1.0000 0.98540  0.52180  0.11840  Biso   1.000  H
  C35      1.0000 0.98400  0.60500  0.15700  Biso   1.000  C
  H95      1.0000 0.98510  0.64000  0.11880  Biso   1.000  H
  H96      1.0000 0.02580  0.59760  0.17850  Biso   1.000  H
  C36      1.0000 0.94050  0.61530  0.23500  Biso   1.000  C
  H97      1.0000 0.96270  0.61430  0.29220  Biso   1.000  H
  H98      1.0000 0.91790  0.65200  0.22930  Biso   1.000  H
  C37      1.0000 0.88900  0.53800  0.12710  Biso   1.000  C
  H99      1.0000 0.86670  0.50120  0.13160  Biso   1.000  H
  H100     1.0000 0.86510  0.56430  0.08870  Biso   1.000  H
  C38      1.0000 0.95210  0.52930  0.09130  Biso   1.000  C
  H101     1.0000 0.95510  0.54440  0.03010  Biso   1.000  H
  H102     1.0000 0.96250  0.48800  0.09040  Biso   1.000  H
  C39      1.0000 0.99630  0.56200  0.15370  Biso   1.000  C
  H103     1.0000 0.02290  0.58850  0.11960  Biso   1.000  H
  H104     1.0000 0.02270  0.53510  0.18740  Biso   1.000  H
  C40      1.0000 0.95310  0.59560  0.21680  Biso   1.000  C
  H105     1.0000 0.97250  0.59980  0.27590  Biso   1.000  H
  H106     1.0000 0.94490  0.63430  0.19260  Biso   1.000  H
  Cs3      1.0000 0.44183  0.02697  0.14057  Biso   1.000  Cs
  Cu3      1.0000 0.44135  0.18578  0.08487  Biso   1.000  Cu
  Si11     1.0000 0.30694  0.12504  0.27641  Biso   1.000  Si
  Si12     1.0000 0.43675  0.13730  0.32039  Biso   1.000  Si
  Si13     1.0000 0.56745  0.12408  0.28114  Biso   1.000  Si
  Si14     1.0000 0.57654  0.12932  0.07989  Biso   1.000  Si
  Si15     1.0000 0.30678  0.12921  0.07486  Biso   1.000  Si
  O29      1.0000 0.30700  0.19200  0.29640  Biso   1.000  O
  O30      1.0000 0.43760  0.19560  0.26280  Biso   1.000  O
  O31      1.0000 0.56750  0.19140  0.29580  Biso   1.000  O
  O32      1.0000 0.37700  0.09880  0.29240  Biso   1.000  O
  O33      1.0000 0.49690  0.09820  0.29610  Biso   1.000  O
  O34      1.0000 0.58830  0.10560  0.18030  Biso   1.000  O
  O35      1.0000 0.50480  0.13160  0.05590  Biso   1.000  O
  O36      1.0000 0.37960  0.13000  0.06200  Biso   1.000  O
  O37      1.0000 0.28640  0.10950  0.17500  Biso   1.000  O
  O38      1.0000 0.27840  0.19410  0.05820  Biso   1.000  O
  O39      1.0000 0.60680  0.19420  0.07190  Biso   1.000  O
  O40      1.0000 0.46720  0.06260  0.92110  Biso   1.000  O
  H107     1.0000 0.48410  0.08590  0.95680  Biso   1.000  H
  O41      1.0000 0.39930  0.93440  0.27620  Biso   1.000  O
  O42      1.0000 0.26720  0.13660  0.58970  Biso   1.000  O
  C41      1.0000 0.26770  0.07950  0.99750  Biso   1.000  C
  H108     1.0000 0.27490  0.09190  0.93630  Biso   1.000  H
  H109     1.0000 0.22330  0.07950  0.00960  Biso   1.000  H
  H110     1.0000 0.28410  0.04080  0.00570  Biso   1.000  H
  C42      1.0000 0.25400  0.08590  0.34990  Biso   1.000  C
  H111     1.0000 0.26230  0.09640  0.41170  Biso   1.000  H
  H112     1.0000 0.26010  0.04460  0.34220  Biso   1.000  H
  H113     1.0000 0.21140  0.09580  0.33490  Biso   1.000  H
  C43      1.0000 0.43470  0.15110  0.44080  Biso   1.000  C
  H114     1.0000 0.42820  0.11500  0.47250  Biso   1.000  H
  H115     1.0000 0.40100  0.17750  0.45430  Biso   1.000  H
  H116     1.0000 0.47390  0.16810  0.45950  Biso   1.000  H
  C44      1.0000 0.61960  0.08530  0.35700  Biso   1.000  C
  H117     1.0000 0.66240  0.09500  0.34300  Biso   1.000  H
  H118     1.0000 0.61350  0.04400  0.34990  Biso   1.000  H
  H119     1.0000 0.61050  0.09620  0.41840  Biso   1.000  H
  C45      1.0000 0.61890  0.08080  0.00410  Biso   1.000  C
  H120     1.0000 0.66290  0.08980  0.00640  Biso   1.000  H
  H121     1.0000 0.60370  0.08600  0.94340  Biso   1.000  H
  H122     1.0000 0.61240  0.04110  0.02260  Biso   1.000  H
  H123     1.0000 0.59400  0.25650  0.89280  Biso   1.000  H
  H124     1.0000 0.52550  0.28050  0.90590  Biso   1.000  H
  H125     1.0000 0.53760  0.21300  0.90360  Biso   1.000  H
  H126     1.0000 0.37060  0.27750  0.90120  Biso   1.000  H
  H127     1.0000 0.30070  0.26090  0.87960  Biso   1.000  H
  H128     1.0000 0.35080  0.21160  0.89510  Biso   1.000  H
  C46      1.0000 0.41730  0.07460  0.87040  Biso   1.000  C
  H129     1.0000 0.40430  0.04010  0.83870  Biso   1.000  H
  H130     1.0000 0.42780  0.10460  0.82760  Biso   1.000  H
  H131     1.0000 0.38360  0.08790  0.90850  Biso   1.000  H
  C47      1.0000 0.23150  0.15460  0.66180  Biso   1.000  C
  H132     1.0000 0.18710  0.15320  0.64740  Biso   1.000  H
  H133     1.0000 0.24260  0.19390  0.68000  Biso   1.000  H
  C48      1.0000 0.24780  0.11110  0.73450  Biso   1.000  C
  H134     1.0000 0.28250  0.12500  0.77140  Biso   1.000  H
  H135     1.0000 0.21190  0.10340  0.77320  Biso   1.000  H
  C49      1.0000 0.26520  0.06020  0.68470  Biso   1.000  C
  H136     1.0000 0.29400  0.03630  0.71960  Biso   1.000  H
  H137     1.0000 0.22840  0.03710  0.67010  Biso   1.000  H
  C50      1.0000 0.29360  0.08010  0.60720  Biso   1.000  C
  H138     1.0000 0.28530  0.05380  0.55710  Biso   1.000  H
  H139     1.0000 0.33870  0.08290  0.61570  Biso   1.000  H
  C51      1.0000 0.38480  0.29760  0.66460  Biso   1.000  C
  H140     1.0000 0.35940  0.30690  0.71720  Biso   1.000  H
  H141     1.0000 0.38540  0.33130  0.62470  Biso   1.000  H
  C52      1.0000 0.44920  0.28180  0.69210  Biso   1.000  C
  H142     1.0000 0.47980  0.29690  0.64950  Biso   1.000  H
  H143     1.0000 0.45870  0.29690  0.75190  Biso   1.000  H
  C53      1.0000 0.40030  0.94710  0.36300  Biso   1.000  C
  H144     1.0000 0.37350  0.92030  0.39560  Biso   1.000  H
  H145     1.0000 0.38450  0.98640  0.37200  Biso   1.000  H
  C54      1.0000 0.46150  0.94310  0.39400  Biso   1.000  C
  H146     1.0000 0.46270  0.93520  0.45900  Biso   1.000  H
  H147     1.0000 0.48540  0.97820  0.38160  Biso   1.000  H
  C55      1.0000 0.48400  0.89500  0.34300  Biso   1.000  C
  H148     1.0000 0.48510  0.86000  0.38120  Biso   1.000  H
  H149     1.0000 0.52580  0.90240  0.32150  Biso   1.000  H
  C56      1.0000 0.44050  0.88470  0.26500  Biso   1.000  C
  H150     1.0000 0.46270  0.88570  0.20780  Biso   1.000  H
  H151     1.0000 0.41790  0.84800  0.27070  Biso   1.000  H
  C57      1.0000 0.38900  0.96200  0.37290  Biso   1.000  C
  H152     1.0000 0.36670  0.99880  0.36840  Biso   1.000  H
  H153     1.0000 0.36510  0.93570  0.41130  Biso   1.000  H
  C58      1.0000 0.45210  0.97070  0.40870  Biso   1.000  C
  H154     1.0000 0.45510  0.95560  0.46990  Biso   1.000  H
  H155     1.0000 0.46250  0.01200  0.40960  Biso   1.000  H
  C59      1.0000 0.49630  0.93800  0.34630  Biso   1.000  C
  H156     1.0000 0.52290  0.91150  0.38040  Biso   1.000  H
  H157     1.0000 0.52270  0.96490  0.31260  Biso   1.000  H
  C60      1.0000 0.45310  0.90440  0.28320  Biso   1.000  C
  H158     1.0000 0.47250  0.90020  0.22410  Biso   1.000  H
  H159     1.0000 0.44490  0.86570  0.30740  Biso   1.000  H
  Cs4      1.0000 0.05817  0.97303  0.64057  Biso   1.000  Cs
  Cu4      1.0000 0.05865  0.81422  0.58487  Biso   1.000  Cu
  Si16     1.0000 0.19306  0.87496  0.77641  Biso   1.000  Si
  Si17     1.0000 0.06325  0.86270  0.82039  Biso   1.000  Si
  Si18     1.0000 0.93255  0.87592  0.78114  Biso   1.000  Si
  Si19     1.0000 0.92346  0.87068  0.57989  Biso   1.000  Si
  Si20     1.0000 0.19322  0.87079  0.57486  Biso   1.000  Si
  O43      1.0000 0.19300  0.80800  0.79640  Biso   1.000  O
  O44      1.0000 0.06240  0.80440  0.76280  Biso   1.000  O
  O45      1.0000 0.93250  0.80860  0.79580  Biso   1.000  O
  O46      1.0000 0.12300  0.90120  0.79240  Biso   1.000  O
  O47      1.0000 0.00310  0.90180  0.79610  Biso   1.000  O
  O48      1.0000 0.91170  0.89440  0.68030  Biso   1.000  O
  O49      1.0000 0.99520  0.86840  0.55590  Biso   1.000  O
  O50      1.0000 0.12040  0.87000  0.56200  Biso   1.000  O
  O51      1.0000 0.21360  0.89050  0.67500  Biso   1.000  O
  O52      1.0000 0.22160  0.80590  0.55820  Biso   1.000  O
  O53      1.0000 0.89320  0.80580  0.57190  Biso   1.000  O
  O54      1.0000 0.03280  0.93740  0.42110  Biso   1.000  O
  H160     1.0000 0.01590  0.91410  0.45680  Biso   1.000  H
  O55      1.0000 0.10070  0.06560  0.77620  Biso   1.000  O
  O56      1.0000 0.23280  0.86340  0.08970  Biso   1.000  O
  C61      1.0000 0.23230  0.92050  0.49750  Biso   1.000  C
  H161     1.0000 0.22510  0.90810  0.43630  Biso   1.000  H
  H162     1.0000 0.27670  0.92050  0.50960  Biso   1.000  H
  H163     1.0000 0.21590  0.95920  0.50570  Biso   1.000  H
  C62      1.0000 0.24600  0.91410  0.84990  Biso   1.000  C
  H164     1.0000 0.23770  0.90360  0.91170  Biso   1.000  H
  H165     1.0000 0.23990  0.95540  0.84220  Biso   1.000  H
  H166     1.0000 0.28860  0.90420  0.83490  Biso   1.000  H
  C63      1.0000 0.06530  0.84890  0.94080  Biso   1.000  C
  H167     1.0000 0.07180  0.88500  0.97250  Biso   1.000  H
  H168     1.0000 0.09900  0.82250  0.95430  Biso   1.000  H
  H169     1.0000 0.02610  0.83190  0.95950  Biso   1.000  H
  C64      1.0000 0.88040  0.91470  0.85700  Biso   1.000  C
  H170     1.0000 0.83760  0.90500  0.84300  Biso   1.000  H
  H171     1.0000 0.88650  0.95600  0.84990  Biso   1.000  H
  H172     1.0000 0.88950  0.90380  0.91840  Biso   1.000  H
  C65      1.0000 0.88110  0.91920  0.50410  Biso   1.000  C
  H173     1.0000 0.83710  0.91020  0.50640  Biso   1.000  H
  H174     1.0000 0.89630  0.91400  0.44340  Biso   1.000  H
  H175     1.0000 0.88760  0.95890  0.52260  Biso   1.000  H
  H176     1.0000 0.90600  0.74350  0.39280  Biso   1.000  H
  H177     1.0000 0.97450  0.71950  0.40590  Biso   1.000  H
  H178     1.0000 0.96240  0.78700  0.40360  Biso   1.000  H
  H179     1.0000 0.12940  0.72250  0.40120  Biso   1.000  H
  H180     1.0000 0.19930  0.73910  0.37960  Biso   1.000  H
  H181     1.0000 0.14920  0.78840  0.39510  Biso   1.000  H
  C66      1.0000 0.08270  0.92540  0.37040  Biso   1.000  C
  H182     1.0000 0.09570  0.95990  0.33870  Biso   1.000  H
  H183     1.0000 0.07220  0.89540  0.32760  Biso   1.000  H
  H184     1.0000 0.11640  0.91210  0.40850  Biso   1.000  H
  C67      1.0000 0.26850  0.84540  0.16180  Biso   1.000  C
  H185     1.0000 0.31290  0.84680  0.14740  Biso   1.000  H
  H186     1.0000 0.25740  0.80610  0.18000  Biso   1.000  H
  C68      1.0000 0.25220  0.88890  0.23450  Biso   1.000  C
  H187     1.0000 0.21750  0.87500  0.27140  Biso   1.000  H
  H188     1.0000 0.28810  0.89660  0.27320  Biso   1.000  H
  C69      1.0000 0.23480  0.93980  0.18470  Biso   1.000  C
  H189     1.0000 0.20600  0.96370  0.21960  Biso   1.000  H
  H190     1.0000 0.27160  0.96290  0.17010  Biso   1.000  H
  C70      1.0000 0.20640  0.91990  0.10720  Biso   1.000  C
  H191     1.0000 0.21470  0.94620  0.05710  Biso   1.000  H
  H192     1.0000 0.16130  0.91710  0.11570  Biso   1.000  H
  C71      1.0000 0.11520  0.70240  0.16460  Biso   1.000  C
  H193     1.0000 0.14060  0.69310  0.21720  Biso   1.000  H
  H194     1.0000 0.11460  0.66870  0.12470  Biso   1.000  H
  C72      1.0000 0.05080  0.71820  0.19210  Biso   1.000  C
  H195     1.0000 0.02020  0.70310  0.14950  Biso   1.000  H
  H196     1.0000 0.04130  0.70310  0.25190  Biso   1.000  H
  C73      1.0000 0.09970  0.05290  0.86300  Biso   1.000  C
  H197     1.0000 0.12650  0.07970  0.89560  Biso   1.000  H
  H198     1.0000 0.11550  0.01360  0.87200  Biso   1.000  H
  C74      1.0000 0.03850  0.05690  0.89400  Biso   1.000  C
  H199     1.0000 0.03730  0.06480  0.95900  Biso   1.000  H
  H200     1.0000 0.01460  0.02180  0.88160  Biso   1.000  H
  C75      1.0000 0.01600  0.10500  0.84300  Biso   1.000  C
  H201     1.0000 0.01490  0.14000  0.88120  Biso   1.000  H
  H202     1.0000 0.97420  0.09760  0.82150  Biso   1.000  H
  C76      1.0000 0.05950  0.11530  0.76500  Biso   1.000  C
  H203     1.0000 0.03730  0.11430  0.70780  Biso   1.000  H
  H204     1.0000 0.08210  0.15200  0.77070  Biso   1.000  H
  C77      1.0000 0.11100  0.03800  0.87290  Biso   1.000  C
  H205     1.0000 0.13330  0.00120  0.86840  Biso   1.000  H
  H206     1.0000 0.13490  0.06430  0.91130  Biso   1.000  H
  C78      1.0000 0.04790  0.02930  0.90870  Biso   1.000  C
  H207     1.0000 0.04490  0.04440  0.96990  Biso   1.000  H
  H208     1.0000 0.03750  0.98800  0.90960  Biso   1.000  H
  C79      1.0000 0.00370  0.06200  0.84630  Biso   1.000  C
  H209     1.0000 0.97710  0.08850  0.88040  Biso   1.000  H
  H210     1.0000 0.97730  0.03510  0.81260  Biso   1.000  H
  C80      1.0000 0.04690  0.09560  0.78320  Biso   1.000  C
  H211     1.0000 0.02750  0.09980  0.72410  Biso   1.000  H
  H212     1.0000 0.05510  0.13430  0.80740  Biso   1.000  H
  Cs5      1.0000 0.44183  0.47303  0.14057  Biso   1.000  Cs
  Cu5      1.0000 0.44135  0.31422  0.08487  Biso   1.000  Cu
  Si21     1.0000 0.30694  0.37496  0.27641  Biso   1.000  Si
  Si22     1.0000 0.43675  0.36270  0.32039  Biso   1.000  Si
  Si23     1.0000 0.56745  0.37592  0.28114  Biso   1.000  Si
  Si24     1.0000 0.57654  0.37068  0.07989  Biso   1.000  Si
  Si25     1.0000 0.30678  0.37079  0.07486  Biso   1.000  Si
  O57      1.0000 0.30700  0.30800  0.29640  Biso   1.000  O
  O58      1.0000 0.43760  0.30440  0.26280  Biso   1.000  O
  O59      1.0000 0.56750  0.30860  0.29580  Biso   1.000  O
  O60      1.0000 0.37700  0.40120  0.29240  Biso   1.000  O
  O61      1.0000 0.49690  0.40180  0.29610  Biso   1.000  O
  O62      1.0000 0.58830  0.39440  0.18030  Biso   1.000  O
  O63      1.0000 0.50480  0.36840  0.05590  Biso   1.000  O
  O64      1.0000 0.37960  0.37000  0.06200  Biso   1.000  O
  O65      1.0000 0.28640  0.39050  0.17500  Biso   1.000  O
  O66      1.0000 0.27840  0.30590  0.05820  Biso   1.000  O
  O67      1.0000 0.60680  0.30580  0.07190  Biso   1.000  O
  O68      1.0000 0.46720  0.43740  0.92110  Biso   1.000  O
  H213     1.0000 0.48410  0.41410  0.95680  Biso   1.000  H
  O69      1.0000 0.39930  0.56560  0.27620  Biso   1.000  O
  O70      1.0000 0.26720  0.36340  0.58970  Biso   1.000  O
  C81      1.0000 0.26770  0.42050  0.99750  Biso   1.000  C
  H214     1.0000 0.27490  0.40810  0.93630  Biso   1.000  H
  H215     1.0000 0.22330  0.42050  0.00960  Biso   1.000  H
  H216     1.0000 0.28410  0.45920  0.00570  Biso   1.000  H
  C82      1.0000 0.25400  0.41410  0.34990  Biso   1.000  C
  H217     1.0000 0.26230  0.40360  0.41170  Biso   1.000  H
  H218     1.0000 0.26010  0.45540  0.34220  Biso   1.000  H
  H219     1.0000 0.21140  0.40420  0.33490  Biso   1.000  H
  C83      1.0000 0.43470  0.34890  0.44080  Biso   1.000  C
  H220     1.0000 0.42820  0.38500  0.47250  Biso   1.000  H
  H221     1.0000 0.40100  0.32250  0.45430  Biso   1.000  H
  H222     1.0000 0.47390  0.33190  0.45950  Biso   1.000  H
  C84      1.0000 0.61960  0.41470  0.35700  Biso   1.000  C
  H223     1.0000 0.66240  0.40500  0.34300  Biso   1.000  H
  H224     1.0000 0.61350  0.45600  0.34990  Biso   1.000  H
  H225     1.0000 0.61050  0.40380  0.41840  Biso   1.000  H
  C85      1.0000 0.61890  0.41920  0.00410  Biso   1.000  C
  H226     1.0000 0.66290  0.41020  0.00640  Biso   1.000  H
  H227     1.0000 0.60370  0.41400  0.94340  Biso   1.000  H
  H228     1.0000 0.61240  0.45890  0.02260  Biso   1.000  H
  H229     1.0000 0.59400  0.24350  0.89280  Biso   1.000  H
  H230     1.0000 0.52550  0.21950  0.90590  Biso   1.000  H
  H231     1.0000 0.53760  0.28700  0.90360  Biso   1.000  H
  H232     1.0000 0.37060  0.22250  0.90120  Biso   1.000  H
  H233     1.0000 0.30070  0.23910  0.87960  Biso   1.000  H
  H234     1.0000 0.35080  0.28840  0.89510  Biso   1.000  H
  C86      1.0000 0.41730  0.42540  0.87040  Biso   1.000  C
  H235     1.0000 0.40430  0.45990  0.83870  Biso   1.000  H
  H236     1.0000 0.42780  0.39540  0.82760  Biso   1.000  H
  H237     1.0000 0.38360  0.41210  0.90850  Biso   1.000  H
  C87      1.0000 0.23150  0.34540  0.66180  Biso   1.000  C
  H238     1.0000 0.18710  0.34680  0.64740  Biso   1.000  H
  H239     1.0000 0.24260  0.30610  0.68000  Biso   1.000  H
  C88      1.0000 0.24780  0.38890  0.73450  Biso   1.000  C
  H240     1.0000 0.28250  0.37500  0.77140  Biso   1.000  H
  H241     1.0000 0.21190  0.39660  0.77320  Biso   1.000  H
  C89      1.0000 0.26520  0.43980  0.68470  Biso   1.000  C
  H242     1.0000 0.29400  0.46370  0.71960  Biso   1.000  H
  H243     1.0000 0.22840  0.46290  0.67010  Biso   1.000  H
  C90      1.0000 0.29360  0.41990  0.60720  Biso   1.000  C
  H244     1.0000 0.28530  0.44620  0.55710  Biso   1.000  H
  H245     1.0000 0.33870  0.41710  0.61570  Biso   1.000  H
  C91      1.0000 0.38480  0.20240  0.66460  Biso   1.000  C
  H246     1.0000 0.35940  0.19310  0.71720  Biso   1.000  H
  H247     1.0000 0.38540  0.16870  0.62470  Biso   1.000  H
  C92      1.0000 0.44920  0.21820  0.69210  Biso   1.000  C
  H248     1.0000 0.47980  0.20310  0.64950  Biso   1.000  H
  H249     1.0000 0.45870  0.20310  0.75190  Biso   1.000  H
  C93      1.0000 0.40030  0.55290  0.36300  Biso   1.000  C
  H250     1.0000 0.37350  0.57970  0.39560  Biso   1.000  H
  H251     1.0000 0.38450  0.51360  0.37200  Biso   1.000  H
  C94      1.0000 0.46150  0.55690  0.39400  Biso   1.000  C
  H252     1.0000 0.46270  0.56480  0.45900  Biso   1.000  H
  H253     1.0000 0.48540  0.52180  0.38160  Biso   1.000  H
  C95      1.0000 0.48400  0.60500  0.34300  Biso   1.000  C
  H254     1.0000 0.48510  0.64000  0.38120  Biso   1.000  H
  H255     1.0000 0.52580  0.59760  0.32150  Biso   1.000  H
  C96      1.0000 0.44050  0.61530  0.26500  Biso   1.000  C
  H256     1.0000 0.46270  0.61430  0.20780  Biso   1.000  H
  H257     1.0000 0.41790  0.65200  0.27070  Biso   1.000  H
  C97      1.0000 0.38900  0.53800  0.37290  Biso   1.000  C
  H258     1.0000 0.36670  0.50120  0.36840  Biso   1.000  H
  H259     1.0000 0.36510  0.56430  0.41130  Biso   1.000  H
  C98      1.0000 0.45210  0.52930  0.40870  Biso   1.000  C
  H260     1.0000 0.45510  0.54440  0.46990  Biso   1.000  H
  H261     1.0000 0.46250  0.48800  0.40960  Biso   1.000  H
  C99      1.0000 0.49630  0.56200  0.34630  Biso   1.000  C
  H262     1.0000 0.52290  0.58850  0.38040  Biso   1.000  H
  H263     1.0000 0.52270  0.53510  0.31260  Biso   1.000  H
  C100     1.0000 0.45310  0.59560  0.28320  Biso   1.000  C
  H264     1.0000 0.47250  0.59980  0.22410  Biso   1.000  H
  H265     1.0000 0.44490  0.63430  0.30740  Biso   1.000  H
  Cs6      1.0000 0.05817  0.52697  0.64057  Biso   1.000  Cs
  Cu6      1.0000 0.05865  0.68578  0.58487  Biso   1.000  Cu
  Si26     1.0000 0.19306  0.62504  0.77641  Biso   1.000  Si
  Si27     1.0000 0.06325  0.63730  0.82039  Biso   1.000  Si
  Si28     1.0000 0.93255  0.62408  0.78114  Biso   1.000  Si
  Si29     1.0000 0.92346  0.62932  0.57989  Biso   1.000  Si
  Si30     1.0000 0.19322  0.62921  0.57486  Biso   1.000  Si
  O71      1.0000 0.19300  0.69200  0.79640  Biso   1.000  O
  O72      1.0000 0.06240  0.69560  0.76280  Biso   1.000  O
  O73      1.0000 0.93250  0.69140  0.79580  Biso   1.000  O
  O74      1.0000 0.12300  0.59880  0.79240  Biso   1.000  O
  O75      1.0000 0.00310  0.59820  0.79610  Biso   1.000  O
  O76      1.0000 0.91170  0.60560  0.68030  Biso   1.000  O
  O77      1.0000 0.99520  0.63160  0.55590  Biso   1.000  O
  O78      1.0000 0.12040  0.63000  0.56200  Biso   1.000  O
  O79      1.0000 0.21360  0.60950  0.67500  Biso   1.000  O
  O80      1.0000 0.22160  0.69410  0.55820  Biso   1.000  O
  O81      1.0000 0.89320  0.69420  0.57190  Biso   1.000  O
  O82      1.0000 0.03280  0.56260  0.42110  Biso   1.000  O
  H266     1.0000 0.01590  0.58590  0.45680  Biso   1.000  H
  O83      1.0000 0.10070  0.43440  0.77620  Biso   1.000  O
  O84      1.0000 0.23280  0.63660  0.08970  Biso   1.000  O
  C101     1.0000 0.23230  0.57950  0.49750  Biso   1.000  C
  H267     1.0000 0.22510  0.59190  0.43630  Biso   1.000  H
  H268     1.0000 0.27670  0.57950  0.50960  Biso   1.000  H
  H269     1.0000 0.21590  0.54080  0.50570  Biso   1.000  H
  C102     1.0000 0.24600  0.58590  0.84990  Biso   1.000  C
  H270     1.0000 0.23770  0.59640  0.91170  Biso   1.000  H
  H271     1.0000 0.23990  0.54460  0.84220  Biso   1.000  H
  H272     1.0000 0.28860  0.59580  0.83490  Biso   1.000  H
  C103     1.0000 0.06530  0.65110  0.94080  Biso   1.000  C
  H273     1.0000 0.07180  0.61500  0.97250  Biso   1.000  H
  H274     1.0000 0.09900  0.67750  0.95430  Biso   1.000  H
  H275     1.0000 0.02610  0.66810  0.95950  Biso   1.000  H
  C104     1.0000 0.88040  0.58530  0.85700  Biso   1.000  C
  H276     1.0000 0.83760  0.59500  0.84300  Biso   1.000  H
  H277     1.0000 0.88650  0.54400  0.84990  Biso   1.000  H
  H278     1.0000 0.88950  0.59620  0.91840  Biso   1.000  H
  C105     1.0000 0.88110  0.58080  0.50410  Biso   1.000  C
  H279     1.0000 0.83710  0.58980  0.50640  Biso   1.000  H
  H280     1.0000 0.89630  0.58600  0.44340  Biso   1.000  H
  H281     1.0000 0.88760  0.54110  0.52260  Biso   1.000  H
  H282     1.0000 0.90600  0.75650  0.39280  Biso   1.000  H
  H283     1.0000 0.97450  0.78050  0.40590  Biso   1.000  H
  H284     1.0000 0.96240  0.71300  0.40360  Biso   1.000  H
  H285     1.0000 0.12940  0.77750  0.40120  Biso   1.000  H
  H286     1.0000 0.19930  0.76090  0.37960  Biso   1.000  H
  H287     1.0000 0.14920  0.71160  0.39510  Biso   1.000  H
  C106     1.0000 0.08270  0.57460  0.37040  Biso   1.000  C
  H288     1.0000 0.09570  0.54010  0.33870  Biso   1.000  H
  H289     1.0000 0.07220  0.60460  0.32760  Biso   1.000  H
  H290     1.0000 0.11640  0.58790  0.40850  Biso   1.000  H
  C107     1.0000 0.26850  0.65460  0.16180  Biso   1.000  C
  H291     1.0000 0.31290  0.65320  0.14740  Biso   1.000  H
  H292     1.0000 0.25740  0.69390  0.18000  Biso   1.000  H
  C108     1.0000 0.25220  0.61110  0.23450  Biso   1.000  C
  H293     1.0000 0.21750  0.62500  0.27140  Biso   1.000  H
  H294     1.0000 0.28810  0.60340  0.27320  Biso   1.000  H
  C109     1.0000 0.23480  0.56020  0.18470  Biso   1.000  C
  H295     1.0000 0.20600  0.53630  0.21960  Biso   1.000  H
  H296     1.0000 0.27160  0.53710  0.17010  Biso   1.000  H
  C110     1.0000 0.20640  0.58010  0.10720  Biso   1.000  C
  H297     1.0000 0.21470  0.55380  0.05710  Biso   1.000  H
  H298     1.0000 0.16130  0.58290  0.11570  Biso   1.000  H
  C111     1.0000 0.11520  0.79760  0.16460  Biso   1.000  C
  H299     1.0000 0.14060  0.80690  0.21720  Biso   1.000  H
  H300     1.0000 0.11460  0.83130  0.12470  Biso   1.000  H
  C112     1.0000 0.05080  0.78180  0.19210  Biso   1.000  C
  H301     1.0000 0.02020  0.79690  0.14950  Biso   1.000  H
  H302     1.0000 0.04130  0.79690  0.25190  Biso   1.000  H
  C113     1.0000 0.09970  0.44710  0.86300  Biso   1.000  C
  H303     1.0000 0.12650  0.42030  0.89560  Biso   1.000  H
  H304     1.0000 0.11550  0.48640  0.87200  Biso   1.000  H
  C114     1.0000 0.03850  0.44310  0.89400  Biso   1.000  C
  H305     1.0000 0.03730  0.43520  0.95900  Biso   1.000  H
  H306     1.0000 0.01460  0.47820  0.88160  Biso   1.000  H
  C115     1.0000 0.01600  0.39500  0.84300  Biso   1.000  C
  H307     1.0000 0.01490  0.36000  0.88120  Biso   1.000  H
  H308     1.0000 0.97420  0.40240  0.82150  Biso   1.000  H
  C116     1.0000 0.05950  0.38470  0.76500  Biso   1.000  C
  H309     1.0000 0.03730  0.38570  0.70780  Biso   1.000  H
  H310     1.0000 0.08210  0.34800  0.77070  Biso   1.000  H
  C117     1.0000 0.11100  0.46200  0.87290  Biso   1.000  C
  H311     1.0000 0.13330  0.49880  0.86840  Biso   1.000  H
  H312     1.0000 0.13490  0.43570  0.91130  Biso   1.000  H
  C118     1.0000 0.04790  0.47070  0.90870  Biso   1.000  C
  H313     1.0000 0.04490  0.45560  0.96990  Biso   1.000  H
  H314     1.0000 0.03750  0.51200  0.90960  Biso   1.000  H
  C119     1.0000 0.00370  0.43800  0.84630  Biso   1.000  C
  H315     1.0000 0.97710  0.41150  0.88040  Biso   1.000  H
  H316     1.0000 0.97730  0.46490  0.81260  Biso   1.000  H
  C120     1.0000 0.04690  0.40440  0.78320  Biso   1.000  C
  H317     1.0000 0.02750  0.40020  0.72410  Biso   1.000  H
  H318     1.0000 0.05510  0.36570  0.80740  Biso   1.000  H
  Cs7      1.0000 0.55817  0.97303  0.85943  Biso   1.000  Cs
  Cu7      1.0000 0.55865  0.81422  0.91513  Biso   1.000  Cu
  Si31     1.0000 0.69306  0.87496  0.72359  Biso   1.000  Si
  Si32     1.0000 0.56325  0.86270  0.67961  Biso   1.000  Si
  Si33     1.0000 0.43255  0.87592  0.71886  Biso   1.000  Si
  Si34     1.0000 0.42346  0.87068  0.92011  Biso   1.000  Si
  Si35     1.0000 0.69322  0.87079  0.92514  Biso   1.000  Si
  O85      1.0000 0.69300  0.80800  0.70360  Biso   1.000  O
  O86      1.0000 0.56240  0.80440  0.73720  Biso   1.000  O
  O87      1.0000 0.43250  0.80860  0.70420  Biso   1.000  O
  O88      1.0000 0.62300  0.90120  0.70760  Biso   1.000  O
  O89      1.0000 0.50310  0.90180  0.70390  Biso   1.000  O
  O90      1.0000 0.41170  0.89440  0.81970  Biso   1.000  O
  O91      1.0000 0.49520  0.86840  0.94410  Biso   1.000  O
  O92      1.0000 0.62040  0.87000  0.93800  Biso   1.000  O
  O93      1.0000 0.71360  0.89050  0.82500  Biso   1.000  O
  O94      1.0000 0.72160  0.80590  0.94180  Biso   1.000  O
  O95      1.0000 0.39320  0.80580  0.92810  Biso   1.000  O
  O96      1.0000 0.53280  0.93740  0.07890  Biso   1.000  O
  H319     1.0000 0.51590  0.91410  0.04320  Biso   1.000  H
  O97      1.0000 0.60070  0.06560  0.72380  Biso   1.000  O
  O98      1.0000 0.73280  0.86340  0.41030  Biso   1.000  O
  C121     1.0000 0.73230  0.92050  0.00250  Biso   1.000  C
  H320     1.0000 0.72510  0.90810  0.06370  Biso   1.000  H
  H321     1.0000 0.77670  0.92050  0.99040  Biso   1.000  H
  H322     1.0000 0.71590  0.95920  0.99430  Biso   1.000  H
  C122     1.0000 0.74600  0.91410  0.65010  Biso   1.000  C
  H323     1.0000 0.73770  0.90360  0.58830  Biso   1.000  H
  H324     1.0000 0.73990  0.95540  0.65780  Biso   1.000  H
  H325     1.0000 0.78860  0.90420  0.66510  Biso   1.000  H
  C123     1.0000 0.56530  0.84890  0.55920  Biso   1.000  C
  H326     1.0000 0.57180  0.88500  0.52750  Biso   1.000  H
  H327     1.0000 0.59900  0.82250  0.54570  Biso   1.000  H
  H328     1.0000 0.52610  0.83190  0.54050  Biso   1.000  H
  C124     1.0000 0.38040  0.91470  0.64300  Biso   1.000  C
  H329     1.0000 0.33760  0.90500  0.65700  Biso   1.000  H
  H330     1.0000 0.38650  0.95600  0.65010  Biso   1.000  H
  H331     1.0000 0.38950  0.90380  0.58160  Biso   1.000  H
  C125     1.0000 0.38110  0.91920  0.99590  Biso   1.000  C
  H332     1.0000 0.33710  0.91020  0.99360  Biso   1.000  H
  H333     1.0000 0.39630  0.91400  0.05660  Biso   1.000  H
  H334     1.0000 0.38760  0.95890  0.97740  Biso   1.000  H
  H335     1.0000 0.40600  0.74350  0.10720  Biso   1.000  H
  H336     1.0000 0.47450  0.71950  0.09410  Biso   1.000  H
  H337     1.0000 0.46240  0.78700  0.09640  Biso   1.000  H
  H338     1.0000 0.62940  0.72250  0.09880  Biso   1.000  H
  H339     1.0000 0.69930  0.73910  0.12040  Biso   1.000  H
  H340     1.0000 0.64920  0.78840  0.10490  Biso   1.000  H
  C126     1.0000 0.58270  0.92540  0.12960  Biso   1.000  C
  H341     1.0000 0.59570  0.95990  0.16130  Biso   1.000  H
  H342     1.0000 0.57220  0.89540  0.17240  Biso   1.000  H
  H343     1.0000 0.61640  0.91210  0.09150  Biso   1.000  H
  C127     1.0000 0.76850  0.84540  0.33820  Biso   1.000  C
  H344     1.0000 0.81290  0.84680  0.35260  Biso   1.000  H
  H345     1.0000 0.75740  0.80610  0.32000  Biso   1.000  H
  C128     1.0000 0.75220  0.88890  0.26550  Biso   1.000  C
  H346     1.0000 0.71750  0.87500  0.22860  Biso   1.000  H
  H347     1.0000 0.78810  0.89660  0.22680  Biso   1.000  H
  C129     1.0000 0.73480  0.93980  0.31530  Biso   1.000  C
  H348     1.0000 0.70600  0.96370  0.28040  Biso   1.000  H
  H349     1.0000 0.77160  0.96290  0.32990  Biso   1.000  H
  C130     1.0000 0.70640  0.91990  0.39280  Biso   1.000  C
  H350     1.0000 0.71470  0.94620  0.44290  Biso   1.000  H
  H351     1.0000 0.66130  0.91710  0.38430  Biso   1.000  H
  C131     1.0000 0.61520  0.70240  0.33540  Biso   1.000  C
  H352     1.0000 0.64060  0.69310  0.28280  Biso   1.000  H
  H353     1.0000 0.61460  0.66870  0.37530  Biso   1.000  H
  C132     1.0000 0.55080  0.71820  0.30790  Biso   1.000  C
  H354     1.0000 0.52020  0.70310  0.35050  Biso   1.000  H
  H355     1.0000 0.54130  0.70310  0.24810  Biso   1.000  H
  C133     1.0000 0.59970  0.05290  0.63700  Biso   1.000  C
  H356     1.0000 0.62650  0.07970  0.60440  Biso   1.000  H
  H357     1.0000 0.61550  0.01360  0.62800  Biso   1.000  H
  C134     1.0000 0.53850  0.05690  0.60600  Biso   1.000  C
  H358     1.0000 0.53730  0.06480  0.54100  Biso   1.000  H
  H359     1.0000 0.51460  0.02180  0.61840  Biso   1.000  H
  C135     1.0000 0.51600  0.10500  0.65700  Biso   1.000  C
  H360     1.0000 0.51490  0.14000  0.61880  Biso   1.000  H
  H361     1.0000 0.47420  0.09760  0.67850  Biso   1.000  H
  C136     1.0000 0.55950  0.11530  0.73500  Biso   1.000  C
  H362     1.0000 0.53730  0.11430  0.79220  Biso   1.000  H
  H363     1.0000 0.58210  0.15200  0.72930  Biso   1.000  H
  C137     1.0000 0.61100  0.03800  0.62710  Biso   1.000  C
  H364     1.0000 0.63330  0.00120  0.63160  Biso   1.000  H
  H365     1.0000 0.63490  0.06430  0.58870  Biso   1.000  H
  C138     1.0000 0.54790  0.02930  0.59130  Biso   1.000  C
  H366     1.0000 0.54490  0.04440  0.53010  Biso   1.000  H
  H367     1.0000 0.53750  0.98800  0.59040  Biso   1.000  H
  C139     1.0000 0.50370  0.06200  0.65370  Biso   1.000  C
  H368     1.0000 0.47710  0.08850  0.61960  Biso   1.000  H
  H369     1.0000 0.47730  0.03510  0.68740  Biso   1.000  H
  C140     1.0000 0.54690  0.09560  0.71680  Biso   1.000  C
  H370     1.0000 0.52750  0.09980  0.77590  Biso   1.000  H
  H371     1.0000 0.55510  0.13430  0.69260  Biso   1.000  H
  Cs8      1.0000 0.94183  0.02697  0.35943  Biso   1.000  Cs
  Cu8      1.0000 0.94135  0.18578  0.41513  Biso   1.000  Cu
  Si36     1.0000 0.80694  0.12504  0.22359  Biso   1.000  Si
  Si37     1.0000 0.93675  0.13730  0.17961  Biso   1.000  Si
  Si38     1.0000 0.06745  0.12408  0.21886  Biso   1.000  Si
  Si39     1.0000 0.07654  0.12932  0.42011  Biso   1.000  Si
  Si40     1.0000 0.80678  0.12921  0.42514  Biso   1.000  Si
  O99      1.0000 0.80700  0.19200  0.20360  Biso   1.000  O
  O100     1.0000 0.93760  0.19560  0.23720  Biso   1.000  O
  O101     1.0000 0.06750  0.19140  0.20420  Biso   1.000  O
  O102     1.0000 0.87700  0.09880  0.20760  Biso   1.000  O
  O103     1.0000 0.99690  0.09820  0.20390  Biso   1.000  O
  O104     1.0000 0.08830  0.10560  0.31970  Biso   1.000  O
  O105     1.0000 0.00480  0.13160  0.44410  Biso   1.000  O
  O106     1.0000 0.87960  0.13000  0.43800  Biso   1.000  O
  O107     1.0000 0.78640  0.10950  0.32500  Biso   1.000  O
  O108     1.0000 0.77840  0.19410  0.44180  Biso   1.000  O
  O109     1.0000 0.10680  0.19420  0.42810  Biso   1.000  O
  O110     1.0000 0.96720  0.06260  0.57890  Biso   1.000  O
  H372     1.0000 0.98410  0.08590  0.54320  Biso   1.000  H
  O111     1.0000 0.89930  0.93440  0.22380  Biso   1.000  O
  O112     1.0000 0.76720  0.13660  0.91030  Biso   1.000  O
  C141     1.0000 0.76770  0.07950  0.50250  Biso   1.000  C
  H373     1.0000 0.77490  0.09190  0.56370  Biso   1.000  H
  H374     1.0000 0.72330  0.07950  0.49040  Biso   1.000  H
  H375     1.0000 0.78410  0.04080  0.49430  Biso   1.000  H
  C142     1.0000 0.75400  0.08590  0.15010  Biso   1.000  C
  H376     1.0000 0.76230  0.09640  0.08830  Biso   1.000  H
  H377     1.0000 0.76010  0.04460  0.15780  Biso   1.000  H
  H378     1.0000 0.71140  0.09580  0.16510  Biso   1.000  H
  C143     1.0000 0.93470  0.15110  0.05920  Biso   1.000  C
  H379     1.0000 0.92820  0.11500  0.02750  Biso   1.000  H
  H380     1.0000 0.90100  0.17750  0.04570  Biso   1.000  H
  H381     1.0000 0.97390  0.16810  0.04050  Biso   1.000  H
  C144     1.0000 0.11960  0.08530  0.14300  Biso   1.000  C
  H382     1.0000 0.16240  0.09500  0.15700  Biso   1.000  H
  H383     1.0000 0.11350  0.04400  0.15010  Biso   1.000  H
  H384     1.0000 0.11050  0.09620  0.08160  Biso   1.000  H
  C145     1.0000 0.11890  0.08080  0.49590  Biso   1.000  C
  H385     1.0000 0.16290  0.08980  0.49360  Biso   1.000  H
  H386     1.0000 0.10370  0.08600  0.55660  Biso   1.000  H
  H387     1.0000 0.11240  0.04110  0.47740  Biso   1.000  H
  H388     1.0000 0.09400  0.25650  0.60720  Biso   1.000  H
  H389     1.0000 0.02550  0.28050  0.59410  Biso   1.000  H
  H390     1.0000 0.03760  0.21300  0.59640  Biso   1.000  H
  H391     1.0000 0.87060  0.27750  0.59880  Biso   1.000  H
  H392     1.0000 0.80070  0.26090  0.62040  Biso   1.000  H
  H393     1.0000 0.85080  0.21160  0.60490  Biso   1.000  H
  C146     1.0000 0.91730  0.07460  0.62960  Biso   1.000  C
  H394     1.0000 0.90430  0.04010  0.66130  Biso   1.000  H
  H395     1.0000 0.92780  0.10460  0.67240  Biso   1.000  H
  H396     1.0000 0.88360  0.08790  0.59150  Biso   1.000  H
  C147     1.0000 0.73150  0.15460  0.83820  Biso   1.000  C
  H397     1.0000 0.68710  0.15320  0.85260  Biso   1.000  H
  H398     1.0000 0.74260  0.19390  0.82000  Biso   1.000  H
  C148     1.0000 0.74780  0.11110  0.76550  Biso   1.000  C
  H399     1.0000 0.78250  0.12500  0.72860  Biso   1.000  H
  H400     1.0000 0.71190  0.10340  0.72680  Biso   1.000  H
  C149     1.0000 0.76520  0.06020  0.81530  Biso   1.000  C
  H401     1.0000 0.79400  0.03630  0.78040  Biso   1.000  H
  H402     1.0000 0.72840  0.03710  0.82990  Biso   1.000  H
  C150     1.0000 0.79360  0.08010  0.89280  Biso   1.000  C
  H403     1.0000 0.78530  0.05380  0.94290  Biso   1.000  H
  H404     1.0000 0.83870  0.08290  0.88430  Biso   1.000  H
  C151     1.0000 0.88480  0.29760  0.83540  Biso   1.000  C
  H405     1.0000 0.85940  0.30690  0.78280  Biso   1.000  H
  H406     1.0000 0.88540  0.33130  0.87530  Biso   1.000  H
  C152     1.0000 0.94920  0.28180  0.80790  Biso   1.000  C
  H407     1.0000 0.97980  0.29690  0.85050  Biso   1.000  H
  H408     1.0000 0.95870  0.29690  0.74810  Biso   1.000  H
  C153     1.0000 0.90030  0.94710  0.13700  Biso   1.000  C
  H409     1.0000 0.87350  0.92030  0.10440  Biso   1.000  H
  H410     1.0000 0.88450  0.98640  0.12800  Biso   1.000  H
  C154     1.0000 0.96150  0.94310  0.10600  Biso   1.000  C
  H411     1.0000 0.96270  0.93520  0.04100  Biso   1.000  H
  H412     1.0000 0.98540  0.97820  0.11840  Biso   1.000  H
  C155     1.0000 0.98400  0.89500  0.15700  Biso   1.000  C
  H413     1.0000 0.98510  0.86000  0.11880  Biso   1.000  H
  H414     1.0000 0.02580  0.90240  0.17850  Biso   1.000  H
  C156     1.0000 0.94050  0.88470  0.23500  Biso   1.000  C
  H415     1.0000 0.96270  0.88570  0.29220  Biso   1.000  H
  H416     1.0000 0.91790  0.84800  0.22930  Biso   1.000  H
  C157     1.0000 0.88900  0.96200  0.12710  Biso   1.000  C
  H417     1.0000 0.86670  0.99880  0.13160  Biso   1.000  H
  H418     1.0000 0.86510  0.93570  0.08870  Biso   1.000  H
  C158     1.0000 0.95210  0.97070  0.09130  Biso   1.000  C
  H419     1.0000 0.95510  0.95560  0.03010  Biso   1.000  H
  H420     1.0000 0.96250  0.01200  0.09040  Biso   1.000  H
  C159     1.0000 0.99630  0.93800  0.15370  Biso   1.000  C
  H421     1.0000 0.02290  0.91150  0.11960  Biso   1.000  H
  H422     1.0000 0.02270  0.96490  0.18740  Biso   1.000  H
  C160     1.0000 0.95310  0.90440  0.21680  Biso   1.000  C
  H423     1.0000 0.97250  0.90020  0.27590  Biso   1.000  H
  H424     1.0000 0.94490  0.86570  0.19260  Biso   1.000  H
  Cs9      1.0000 0.75085  0.75000  0.54064  Biso   1.000  Cs
  Cs10     1.0000 0.31026  0.75000  0.70572  Biso   1.000  Cs
  Cu9      1.0000 0.63265  0.75000  0.73002  Biso   1.000  Cu
  Cu10     1.0000 0.49184  0.75000  0.72817  Biso   1.000  Cu
  Si41     1.0000 0.43446  0.75000  0.95647  Biso   1.000  Si
  Si42     1.0000 0.68013  0.75000  0.96761  Biso   1.000  Si
  O113     1.0000 0.61770  0.75000  0.90680  Biso   1.000  O
  O114     1.0000 0.49970  0.75000  0.90240  Biso   1.000  O
  O115     1.0000 0.63900  0.75000  0.37960  Biso   1.000  O
  C161     1.0000 0.44560  0.75000  0.07770  Biso   1.000  C
  C162     1.0000 0.66240  0.75000  0.08690  Biso   1.000  C
  Cs11     1.0000 0.74915  0.25000  0.04064  Biso   1.000  Cs
  Cs12     1.0000 0.18974  0.25000  0.20572  Biso   1.000  Cs
  Cu11     1.0000 0.86735  0.25000  0.23002  Biso   1.000  Cu
  Cu12     1.0000 0.00816  0.25000  0.22817  Biso   1.000  Cu
  Si43     1.0000 0.06554  0.25000  0.45647  Biso   1.000  Si
  Si44     1.0000 0.81987  0.25000  0.46761  Biso   1.000  Si
  O116     1.0000 0.88230  0.25000  0.40680  Biso   1.000  O
  O117     1.0000 0.00030  0.25000  0.40240  Biso   1.000  O
  O118     1.0000 0.86100  0.25000  0.87960  Biso   1.000  O
  C163     1.0000 0.05440  0.25000  0.57770  Biso   1.000  C
  C164     1.0000 0.83760  0.25000  0.58690  Biso   1.000  C
  Cs13     1.0000 0.24915  0.25000  0.45936  Biso   1.000  Cs
  Cs14     1.0000 0.68974  0.25000  0.29428  Biso   1.000  Cs
  Cu13     1.0000 0.36735  0.25000  0.26998  Biso   1.000  Cu
  Cu14     1.0000 0.50816  0.25000  0.27183  Biso   1.000  Cu
  Si45     1.0000 0.56554  0.25000  0.04353  Biso   1.000  Si
  Si46     1.0000 0.31987  0.25000  0.03239  Biso   1.000  Si
  O119     1.0000 0.38230  0.25000  0.09320  Biso   1.000  O
  O120     1.0000 0.50030  0.25000  0.09760  Biso   1.000  O
  O121     1.0000 0.36100  0.25000  0.62040  Biso   1.000  O
  C165     1.0000 0.55440  0.25000  0.92230  Biso   1.000  C
  C166     1.0000 0.33760  0.25000  0.91310  Biso   1.000  C
  Cs15     1.0000 0.25085  0.75000  0.95936  Biso   1.000  Cs
  Cs16     1.0000 0.81026  0.75000  0.79428  Biso   1.000  Cs
  Cu15     1.0000 0.13265  0.75000  0.76998  Biso   1.000  Cu
  Cu16     1.0000 0.99184  0.75000  0.77183  Biso   1.000  Cu
  Si47     1.0000 0.93446  0.75000  0.54353  Biso   1.000  Si
  Si48     1.0000 0.18013  0.75000  0.53239  Biso   1.000  Si
  O122     1.0000 0.11770  0.75000  0.59320  Biso   1.000  O
  O123     1.0000 0.99970  0.75000  0.59760  Biso   1.000  O
  O124     1.0000 0.13900  0.75000  0.12040  Biso   1.000  O
  C167     1.0000 0.94560  0.75000  0.42230  Biso   1.000  C
  C168     1.0000 0.16240  0.75000  0.41310  Biso   1.000  C
