data_image0
_cell_length_a       16.9014
_cell_length_b       34.0597
_cell_length_c       18.3315
_cell_angle_alpha    90
_cell_angle_beta     90
_cell_angle_gamma    90

_symmetry_space_group_name_H-M    P 1
_symmetry_int_tables_number       1

loop_
  _symmetry_equiv_pos_as_xyz
  'x, y, z'

loop_
  _atom_site_label
  _atom_site_occupancy
  _atom_site_fract_x
  _atom_site_fract_y
  _atom_site_fract_z
  _atom_site_thermal_displace_type
  _atom_site_B_iso_or_equiv
  _atom_site_type_symbol
  Ti1      1.0000 0.28802  0.15448  0.82914  Biso   1.000  Ti
  Ti2      1.0000 0.17331  0.17557  0.66865  Biso   1.000  Ti
  Ti3      1.0000 0.71198  0.84552  0.82914  Biso   1.000  Ti
  Ti4      1.0000 0.82669  0.82443  0.66865  Biso   1.000  Ti
  Ti5      1.0000 0.78802  0.34552  0.17086  Biso   1.000  Ti
  Ti6      1.0000 0.67331  0.32443  0.33135  Biso   1.000  Ti
  Ti7      1.0000 0.21198  0.65448  0.17086  Biso   1.000  Ti
  Ti8      1.0000 0.32669  0.67557  0.33135  Biso   1.000  Ti
  Zn1      1.0000 0.10811  0.00460  0.24860  Biso   1.000  Zn
  Zn2      1.0000 0.00080  0.01403  0.09769  Biso   1.000  Zn
  Zn3      1.0000 0.89189  0.99540  0.24860  Biso   1.000  Zn
  Zn4      1.0000 0.99920  0.98597  0.09769  Biso   1.000  Zn
  Zn5      1.0000 0.60811  0.49540  0.75140  Biso   1.000  Zn
  Zn6      1.0000 0.50080  0.48597  0.90231  Biso   1.000  Zn
  Zn7      1.0000 0.39189  0.50460  0.75140  Biso   1.000  Zn
  Zn8      1.0000 0.49920  0.51403  0.90231  Biso   1.000  Zn
  H1       1.0000 0.31830  0.06850  0.13180  Biso   1.000  H
  H2       1.0000 0.13500  0.04640  0.99530  Biso   1.000  H
  H3       1.0000 0.44660  0.07780  0.13270  Biso   1.000  H
  H4       1.0000 0.40810  0.11670  0.16650  Biso   1.000  H
  H5       1.0000 0.49430  0.11840  0.13040  Biso   1.000  H
  H6       1.0000 0.47290  0.07370  0.00120  Biso   1.000  H
  H7       1.0000 0.51850  0.11450  0.01120  Biso   1.000  H
  H8       1.0000 0.45280  0.11000  0.94890  Biso   1.000  H
  H9       1.0000 0.37580  0.16860  0.99710  Biso   1.000  H
  H10      1.0000 0.45110  0.17340  0.04920  Biso   1.000  H
  H11      1.0000 0.36400  0.17230  0.08340  Biso   1.000  H
  H12      1.0000 0.20290  0.07340  0.84220  Biso   1.000  H
  H13      1.0000 0.11940  0.07730  0.88330  Biso   1.000  H
  H14      1.0000 0.14910  0.15020  0.96230  Biso   1.000  H
  H15      1.0000 0.02970  0.12030  0.93290  Biso   1.000  H
  H16      1.0000 0.01550  0.15020  0.86670  Biso   1.000  H
  H17      1.0000 0.93840  0.17180  0.96630  Biso   1.000  H
  H18      1.0000 0.01360  0.17090  0.01940  Biso   1.000  H
  H19      1.0000 0.98710  0.23350  0.98770  Biso   1.000  H
  H20      1.0000 0.98930  0.22240  0.90300  Biso   1.000  H
  H21      1.0000 0.12080  0.22230  0.99830  Biso   1.000  H
  H22      1.0000 0.10540  0.25310  0.93390  Biso   1.000  H
  H23      1.0000 0.12040  0.20330  0.84510  Biso   1.000  H
  H24      1.0000 0.22490  0.24320  0.80490  Biso   1.000  H
  H25      1.0000 0.21970  0.26440  0.88260  Biso   1.000  H
  H26      1.0000 0.31030  0.31060  0.86820  Biso   1.000  H
  H27      1.0000 0.54160  0.28680  0.82980  Biso   1.000  H
  H28      1.0000 0.61960  0.24770  0.76480  Biso   1.000  H
  H29      1.0000 0.66060  0.20860  0.79490  Biso   1.000  H
  H30      1.0000 0.63610  0.24280  0.85020  Biso   1.000  H
  H31      1.0000 0.49650  0.16760  0.88790  Biso   1.000  H
  H32      1.0000 0.56420  0.19480  0.92230  Biso   1.000  H
  H33      1.0000 0.58710  0.16090  0.86560  Biso   1.000  H
  H34      1.0000 0.47120  0.17360  0.74380  Biso   1.000  H
  H35      1.0000 0.56430  0.16590  0.73690  Biso   1.000  H
  H36      1.0000 0.52590  0.20420  0.70070  Biso   1.000  H
  H37      1.0000 0.58670  0.41220  0.82410  Biso   1.000  H
  H38      1.0000 0.55320  0.34610  0.80840  Biso   1.000  H
  H39      1.0000 0.34510  0.36480  0.91270  Biso   1.000  H
  H40      1.0000 0.37860  0.43100  0.92830  Biso   1.000  H
  H41      1.0000 0.05830  0.12220  0.35710  Biso   1.000  H
  H42      1.0000 0.16730  0.04670  0.49540  Biso   1.000  H
  H43      1.0000 0.99000  0.17140  0.34120  Biso   1.000  H
  H44      1.0000 0.07500  0.19050  0.32660  Biso   1.000  H
  H45      1.0000 0.00180  0.21780  0.34890  Biso   1.000  H
  H46      1.0000 0.12260  0.21990  0.50650  Biso   1.000  H
  H47      1.0000 0.07860  0.24580  0.44580  Biso   1.000  H
  H48      1.0000 0.15190  0.21850  0.42350  Biso   1.000  H
  H49      1.0000 0.98300  0.18830  0.53610  Biso   1.000  H
  H50      1.0000 0.93350  0.17160  0.46840  Biso   1.000  H
  H51      1.0000 0.94980  0.21780  0.47540  Biso   1.000  H
  H52      1.0000 0.14470  0.08770  0.64760  Biso   1.000  H
  H53      1.0000 0.21690  0.06670  0.60670  Biso   1.000  H
  H54      1.0000 0.27690  0.13710  0.53440  Biso   1.000  H
  H55      1.0000 0.38770  0.09240  0.62020  Biso   1.000  H
  H56      1.0000 0.33720  0.07540  0.55350  Biso   1.000  H
  H57      1.0000 0.40680  0.11480  0.47150  Biso   1.000  H
  H58      1.0000 0.46780  0.08840  0.51710  Biso   1.000  H
  H59      1.0000 0.49640  0.14350  0.59630  Biso   1.000  H
  H60      1.0000 0.51470  0.15570  0.51350  Biso   1.000  H
  H61      1.0000 0.39080  0.18780  0.50490  Biso   1.000  H
  H62      1.0000 0.43890  0.20570  0.57260  Biso   1.000  H
  H63      1.0000 0.36740  0.16570  0.65510  Biso   1.000  H
  H64      1.0000 0.36050  0.24550  0.62960  Biso   1.000  H
  H65      1.0000 0.33040  0.22570  0.70340  Biso   1.000  H
  H66      1.0000 0.34510  0.30910  0.66960  Biso   1.000  H
  H67      1.0000 0.12730  0.35580  0.70130  Biso   1.000  H
  H68      1.0000 0.93680  0.33070  0.69840  Biso   1.000  H
  H69      1.0000 0.00720  0.34910  0.65110  Biso   1.000  H
  H70      1.0000 0.01370  0.34790  0.73820  Biso   1.000  H
  H71      1.0000 0.94340  0.27150  0.62790  Biso   1.000  H
  H72      1.0000 0.02390  0.24740  0.61690  Biso   1.000  H
  H73      1.0000 0.01380  0.28980  0.58040  Biso   1.000  H
  H74      1.0000 0.95620  0.26630  0.76320  Biso   1.000  H
  H75      1.0000 0.03410  0.28260  0.80260  Biso   1.000  H
  H76      1.0000 0.03780  0.24270  0.75650  Biso   1.000  H
  H77      1.0000 0.43470  0.43150  0.66610  Biso   1.000  H
  H78      1.0000 0.37730  0.37060  0.63960  Biso   1.000  H
  H79      1.0000 0.19410  0.39610  0.77410  Biso   1.000  H
  H80      1.0000 0.25150  0.45700  0.80070  Biso   1.000  H
  H81      1.0000 0.34820  0.05600  0.75740  Biso   1.000  H
  H82      1.0000 0.35460  0.06860  0.84100  Biso   1.000  H
  H83      1.0000 0.48100  0.05540  0.79560  Biso   1.000  H
  H84      1.0000 0.47590  0.10100  0.81580  Biso   1.000  H
  H85      1.0000 0.46970  0.08730  0.73250  Biso   1.000  H
  H86      1.0000 0.00670  0.14070  0.64520  Biso   1.000  H
  H87      1.0000 0.97500  0.15950  0.71980  Biso   1.000  H
  H88      1.0000 0.93450  0.09480  0.71070  Biso   1.000  H
  H89      1.0000 0.99370  0.09940  0.77830  Biso   1.000  H
  H90      1.0000 0.02450  0.08080  0.70340  Biso   1.000  H
  H91      1.0000 0.68170  0.93150  0.13180  Biso   1.000  H
  H92      1.0000 0.86500  0.95360  0.99530  Biso   1.000  H
  H93      1.0000 0.55340  0.92220  0.13270  Biso   1.000  H
  H94      1.0000 0.59190  0.88330  0.16650  Biso   1.000  H
  H95      1.0000 0.50570  0.88160  0.13040  Biso   1.000  H
  H96      1.0000 0.52710  0.92630  0.00120  Biso   1.000  H
  H97      1.0000 0.48150  0.88550  0.01120  Biso   1.000  H
  H98      1.0000 0.54720  0.89000  0.94890  Biso   1.000  H
  H99      1.0000 0.62420  0.83140  0.99710  Biso   1.000  H
  H100     1.0000 0.54890  0.82660  0.04920  Biso   1.000  H
  H101     1.0000 0.63600  0.82770  0.08340  Biso   1.000  H
  H102     1.0000 0.79710  0.92660  0.84220  Biso   1.000  H
  H103     1.0000 0.88060  0.92270  0.88330  Biso   1.000  H
  H104     1.0000 0.85090  0.84980  0.96230  Biso   1.000  H
  H105     1.0000 0.97030  0.87970  0.93290  Biso   1.000  H
  H106     1.0000 0.98450  0.84980  0.86670  Biso   1.000  H
  H107     1.0000 0.06160  0.82820  0.96630  Biso   1.000  H
  H108     1.0000 0.98640  0.82910  0.01940  Biso   1.000  H
  H109     1.0000 0.01290  0.76650  0.98770  Biso   1.000  H
  H110     1.0000 0.01070  0.77760  0.90300  Biso   1.000  H
  H111     1.0000 0.87920  0.77770  0.99830  Biso   1.000  H
  H112     1.0000 0.89460  0.74690  0.93390  Biso   1.000  H
  H113     1.0000 0.87960  0.79670  0.84510  Biso   1.000  H
  H114     1.0000 0.77510  0.75680  0.80490  Biso   1.000  H
  H115     1.0000 0.78030  0.73560  0.88260  Biso   1.000  H
  H116     1.0000 0.68970  0.68940  0.86820  Biso   1.000  H
  H117     1.0000 0.45840  0.71320  0.82980  Biso   1.000  H
  H118     1.0000 0.38040  0.75230  0.76480  Biso   1.000  H
  H119     1.0000 0.33940  0.79140  0.79490  Biso   1.000  H
  H120     1.0000 0.36390  0.75720  0.85020  Biso   1.000  H
  H121     1.0000 0.50350  0.83240  0.88790  Biso   1.000  H
  H122     1.0000 0.43580  0.80520  0.92230  Biso   1.000  H
  H123     1.0000 0.41290  0.83910  0.86560  Biso   1.000  H
  H124     1.0000 0.52880  0.82640  0.74380  Biso   1.000  H
  H125     1.0000 0.43570  0.83410  0.73690  Biso   1.000  H
  H126     1.0000 0.47410  0.79580  0.70070  Biso   1.000  H
  H127     1.0000 0.41330  0.58780  0.82410  Biso   1.000  H
  H128     1.0000 0.44680  0.65390  0.80840  Biso   1.000  H
  H129     1.0000 0.65490  0.63520  0.91270  Biso   1.000  H
  H130     1.0000 0.62140  0.56900  0.92830  Biso   1.000  H
  H131     1.0000 0.94170  0.87780  0.35710  Biso   1.000  H
  H132     1.0000 0.83270  0.95330  0.49540  Biso   1.000  H
  H133     1.0000 0.01000  0.82860  0.34120  Biso   1.000  H
  H134     1.0000 0.92500  0.80950  0.32660  Biso   1.000  H
  H135     1.0000 0.99820  0.78220  0.34890  Biso   1.000  H
  H136     1.0000 0.87740  0.78010  0.50650  Biso   1.000  H
  H137     1.0000 0.92140  0.75420  0.44580  Biso   1.000  H
  H138     1.0000 0.84810  0.78150  0.42350  Biso   1.000  H
  H139     1.0000 0.01700  0.81170  0.53610  Biso   1.000  H
  H140     1.0000 0.06650  0.82840  0.46840  Biso   1.000  H
  H141     1.0000 0.05020  0.78220  0.47540  Biso   1.000  H
  H142     1.0000 0.85530  0.91230  0.64760  Biso   1.000  H
  H143     1.0000 0.78310  0.93330  0.60670  Biso   1.000  H
  H144     1.0000 0.72310  0.86290  0.53440  Biso   1.000  H
  H145     1.0000 0.61230  0.90760  0.62020  Biso   1.000  H
  H146     1.0000 0.66280  0.92460  0.55350  Biso   1.000  H
  H147     1.0000 0.59320  0.88520  0.47150  Biso   1.000  H
  H148     1.0000 0.53220  0.91160  0.51710  Biso   1.000  H
  H149     1.0000 0.50360  0.85650  0.59630  Biso   1.000  H
  H150     1.0000 0.48530  0.84430  0.51350  Biso   1.000  H
  H151     1.0000 0.60920  0.81220  0.50490  Biso   1.000  H
  H152     1.0000 0.56110  0.79430  0.57260  Biso   1.000  H
  H153     1.0000 0.63260  0.83430  0.65510  Biso   1.000  H
  H154     1.0000 0.63950  0.75450  0.62960  Biso   1.000  H
  H155     1.0000 0.66960  0.77430  0.70340  Biso   1.000  H
  H156     1.0000 0.65490  0.69090  0.66960  Biso   1.000  H
  H157     1.0000 0.87270  0.64420  0.70130  Biso   1.000  H
  H158     1.0000 0.06320  0.66930  0.69840  Biso   1.000  H
  H159     1.0000 0.99280  0.65090  0.65110  Biso   1.000  H
  H160     1.0000 0.98630  0.65210  0.73820  Biso   1.000  H
  H161     1.0000 0.05660  0.72850  0.62790  Biso   1.000  H
  H162     1.0000 0.97610  0.75260  0.61690  Biso   1.000  H
  H163     1.0000 0.98620  0.71020  0.58040  Biso   1.000  H
  H164     1.0000 0.04380  0.73370  0.76320  Biso   1.000  H
  H165     1.0000 0.96590  0.71740  0.80260  Biso   1.000  H
  H166     1.0000 0.96220  0.75730  0.75650  Biso   1.000  H
  H167     1.0000 0.56530  0.56850  0.66610  Biso   1.000  H
  H168     1.0000 0.62270  0.62940  0.63960  Biso   1.000  H
  H169     1.0000 0.80590  0.60390  0.77410  Biso   1.000  H
  H170     1.0000 0.74850  0.54300  0.80070  Biso   1.000  H
  H171     1.0000 0.65180  0.94400  0.75740  Biso   1.000  H
  H172     1.0000 0.64540  0.93140  0.84100  Biso   1.000  H
  H173     1.0000 0.51900  0.94460  0.79560  Biso   1.000  H
  H174     1.0000 0.52410  0.89900  0.81580  Biso   1.000  H
  H175     1.0000 0.53030  0.91270  0.73250  Biso   1.000  H
  H176     1.0000 0.99330  0.85930  0.64520  Biso   1.000  H
  H177     1.0000 0.02500  0.84050  0.71980  Biso   1.000  H
  H178     1.0000 0.06550  0.90520  0.71070  Biso   1.000  H
  H179     1.0000 0.00630  0.90060  0.77830  Biso   1.000  H
  H180     1.0000 0.97550  0.91920  0.70340  Biso   1.000  H
  H181     1.0000 0.81830  0.43150  0.86820  Biso   1.000  H
  H182     1.0000 0.63500  0.45360  0.00470  Biso   1.000  H
  H183     1.0000 0.94660  0.42220  0.86730  Biso   1.000  H
  H184     1.0000 0.90810  0.38330  0.83350  Biso   1.000  H
  H185     1.0000 0.99430  0.38160  0.86960  Biso   1.000  H
  H186     1.0000 0.97290  0.42630  0.99880  Biso   1.000  H
  H187     1.0000 0.01850  0.38550  0.98880  Biso   1.000  H
  H188     1.0000 0.95280  0.39000  0.05110  Biso   1.000  H
  H189     1.0000 0.87580  0.33140  0.00290  Biso   1.000  H
  H190     1.0000 0.95110  0.32660  0.95080  Biso   1.000  H
  H191     1.0000 0.86400  0.32770  0.91660  Biso   1.000  H
  H192     1.0000 0.70290  0.42660  0.15780  Biso   1.000  H
  H193     1.0000 0.61940  0.42270  0.11670  Biso   1.000  H
  H194     1.0000 0.64910  0.34980  0.03770  Biso   1.000  H
  H195     1.0000 0.52970  0.37970  0.06710  Biso   1.000  H
  H196     1.0000 0.51550  0.34980  0.13330  Biso   1.000  H
  H197     1.0000 0.43840  0.32820  0.03370  Biso   1.000  H
  H198     1.0000 0.51360  0.32910  0.98060  Biso   1.000  H
  H199     1.0000 0.48710  0.26650  0.01230  Biso   1.000  H
  H200     1.0000 0.48930  0.27760  0.09700  Biso   1.000  H
  H201     1.0000 0.62080  0.27770  0.00170  Biso   1.000  H
  H202     1.0000 0.60540  0.24690  0.06610  Biso   1.000  H
  H203     1.0000 0.62040  0.29670  0.15490  Biso   1.000  H
  H204     1.0000 0.72490  0.25680  0.19510  Biso   1.000  H
  H205     1.0000 0.71970  0.23560  0.11740  Biso   1.000  H
  H206     1.0000 0.81030  0.18940  0.13180  Biso   1.000  H
  H207     1.0000 0.04160  0.21320  0.17020  Biso   1.000  H
  H208     1.0000 0.11960  0.25230  0.23520  Biso   1.000  H
  H209     1.0000 0.16060  0.29140  0.20510  Biso   1.000  H
  H210     1.0000 0.13610  0.25720  0.14980  Biso   1.000  H
  H211     1.0000 0.99650  0.33240  0.11210  Biso   1.000  H
  H212     1.0000 0.06420  0.30520  0.07770  Biso   1.000  H
  H213     1.0000 0.08710  0.33910  0.13440  Biso   1.000  H
  H214     1.0000 0.97120  0.32640  0.25620  Biso   1.000  H
  H215     1.0000 0.06430  0.33410  0.26310  Biso   1.000  H
  H216     1.0000 0.02590  0.29580  0.29930  Biso   1.000  H
  H217     1.0000 0.08670  0.08780  0.17590  Biso   1.000  H
  H218     1.0000 0.05320  0.15390  0.19160  Biso   1.000  H
  H219     1.0000 0.84510  0.13520  0.08730  Biso   1.000  H
  H220     1.0000 0.87860  0.06900  0.07170  Biso   1.000  H
  H221     1.0000 0.55830  0.37780  0.64290  Biso   1.000  H
  H222     1.0000 0.66730  0.45330  0.50460  Biso   1.000  H
  H223     1.0000 0.49000  0.32860  0.65880  Biso   1.000  H
  H224     1.0000 0.57500  0.30950  0.67340  Biso   1.000  H
  H225     1.0000 0.50180  0.28220  0.65110  Biso   1.000  H
  H226     1.0000 0.62260  0.28010  0.49350  Biso   1.000  H
  H227     1.0000 0.57860  0.25420  0.55420  Biso   1.000  H
  H228     1.0000 0.65190  0.28150  0.57650  Biso   1.000  H
  H229     1.0000 0.48300  0.31170  0.46390  Biso   1.000  H
  H230     1.0000 0.43350  0.32840  0.53160  Biso   1.000  H
  H231     1.0000 0.44980  0.28220  0.52460  Biso   1.000  H
  H232     1.0000 0.64470  0.41230  0.35240  Biso   1.000  H
  H233     1.0000 0.71690  0.43330  0.39330  Biso   1.000  H
  H234     1.0000 0.77690  0.36290  0.46560  Biso   1.000  H
  H235     1.0000 0.88770  0.40760  0.37980  Biso   1.000  H
  H236     1.0000 0.83720  0.42460  0.44650  Biso   1.000  H
  H237     1.0000 0.90680  0.38520  0.52850  Biso   1.000  H
  H238     1.0000 0.96780  0.41160  0.48290  Biso   1.000  H
  H239     1.0000 0.99640  0.35650  0.40370  Biso   1.000  H
  H240     1.0000 0.01470  0.34430  0.48650  Biso   1.000  H
  H241     1.0000 0.89080  0.31220  0.49510  Biso   1.000  H
  H242     1.0000 0.93890  0.29430  0.42740  Biso   1.000  H
  H243     1.0000 0.86740  0.33430  0.34490  Biso   1.000  H
  H244     1.0000 0.86050  0.25450  0.37040  Biso   1.000  H
  H245     1.0000 0.83040  0.27430  0.29660  Biso   1.000  H
  H246     1.0000 0.84510  0.19090  0.33040  Biso   1.000  H
  H247     1.0000 0.62730  0.14420  0.29870  Biso   1.000  H
  H248     1.0000 0.43680  0.16930  0.30160  Biso   1.000  H
  H249     1.0000 0.50720  0.15090  0.34890  Biso   1.000  H
  H250     1.0000 0.51370  0.15210  0.26180  Biso   1.000  H
  H251     1.0000 0.44340  0.22850  0.37210  Biso   1.000  H
  H252     1.0000 0.52390  0.25260  0.38310  Biso   1.000  H
  H253     1.0000 0.51380  0.21020  0.41960  Biso   1.000  H
  H254     1.0000 0.45620  0.23370  0.23680  Biso   1.000  H
  H255     1.0000 0.53410  0.21740  0.19740  Biso   1.000  H
  H256     1.0000 0.53780  0.25730  0.24350  Biso   1.000  H
  H257     1.0000 0.93470  0.06850  0.33390  Biso   1.000  H
  H258     1.0000 0.87730  0.12940  0.36040  Biso   1.000  H
  H259     1.0000 0.69410  0.10390  0.22590  Biso   1.000  H
  H260     1.0000 0.75150  0.04300  0.19930  Biso   1.000  H
  H261     1.0000 0.84820  0.44400  0.24260  Biso   1.000  H
  H262     1.0000 0.85460  0.43140  0.15900  Biso   1.000  H
  H263     1.0000 0.98100  0.44460  0.20440  Biso   1.000  H
  H264     1.0000 0.97590  0.39900  0.18420  Biso   1.000  H
  H265     1.0000 0.96970  0.41270  0.26750  Biso   1.000  H
  H266     1.0000 0.50670  0.35930  0.35480  Biso   1.000  H
  H267     1.0000 0.47500  0.34050  0.28020  Biso   1.000  H
  H268     1.0000 0.43450  0.40520  0.28930  Biso   1.000  H
  H269     1.0000 0.49370  0.40060  0.22170  Biso   1.000  H
  H270     1.0000 0.52450  0.41920  0.29660  Biso   1.000  H
  H271     1.0000 0.18170  0.56850  0.86820  Biso   1.000  H
  H272     1.0000 0.36500  0.54640  0.00470  Biso   1.000  H
  H273     1.0000 0.05340  0.57780  0.86730  Biso   1.000  H
  H274     1.0000 0.09190  0.61670  0.83350  Biso   1.000  H
  H275     1.0000 0.00570  0.61840  0.86960  Biso   1.000  H
  H276     1.0000 0.02710  0.57370  0.99880  Biso   1.000  H
  H277     1.0000 0.98150  0.61450  0.98880  Biso   1.000  H
  H278     1.0000 0.04720  0.61000  0.05110  Biso   1.000  H
  H279     1.0000 0.12420  0.66860  0.00290  Biso   1.000  H
  H280     1.0000 0.04890  0.67340  0.95080  Biso   1.000  H
  H281     1.0000 0.13600  0.67230  0.91660  Biso   1.000  H
  H282     1.0000 0.29710  0.57340  0.15780  Biso   1.000  H
  H283     1.0000 0.38060  0.57730  0.11670  Biso   1.000  H
  H284     1.0000 0.35090  0.65020  0.03770  Biso   1.000  H
  H285     1.0000 0.47030  0.62030  0.06710  Biso   1.000  H
  H286     1.0000 0.48450  0.65020  0.13330  Biso   1.000  H
  H287     1.0000 0.56160  0.67180  0.03370  Biso   1.000  H
  H288     1.0000 0.48640  0.67090  0.98060  Biso   1.000  H
  H289     1.0000 0.51290  0.73350  0.01230  Biso   1.000  H
  H290     1.0000 0.51070  0.72240  0.09700  Biso   1.000  H
  H291     1.0000 0.37920  0.72230  0.00170  Biso   1.000  H
  H292     1.0000 0.39460  0.75310  0.06610  Biso   1.000  H
  H293     1.0000 0.37960  0.70330  0.15490  Biso   1.000  H
  H294     1.0000 0.27510  0.74320  0.19510  Biso   1.000  H
  H295     1.0000 0.28030  0.76440  0.11740  Biso   1.000  H
  H296     1.0000 0.18970  0.81060  0.13180  Biso   1.000  H
  H297     1.0000 0.95840  0.78680  0.17020  Biso   1.000  H
  H298     1.0000 0.88040  0.74770  0.23520  Biso   1.000  H
  H299     1.0000 0.83940  0.70860  0.20510  Biso   1.000  H
  H300     1.0000 0.86390  0.74280  0.14980  Biso   1.000  H
  H301     1.0000 0.00350  0.66760  0.11210  Biso   1.000  H
  H302     1.0000 0.93580  0.69480  0.07770  Biso   1.000  H
  H303     1.0000 0.91290  0.66090  0.13440  Biso   1.000  H
  H304     1.0000 0.02880  0.67360  0.25620  Biso   1.000  H
  H305     1.0000 0.93570  0.66590  0.26310  Biso   1.000  H
  H306     1.0000 0.97410  0.70420  0.29930  Biso   1.000  H
  H307     1.0000 0.91330  0.91220  0.17590  Biso   1.000  H
  H308     1.0000 0.94680  0.84610  0.19160  Biso   1.000  H
  H309     1.0000 0.15490  0.86480  0.08730  Biso   1.000  H
  H310     1.0000 0.12140  0.93100  0.07170  Biso   1.000  H
  H311     1.0000 0.44170  0.62220  0.64290  Biso   1.000  H
  H312     1.0000 0.33270  0.54670  0.50460  Biso   1.000  H
  H313     1.0000 0.51000  0.67140  0.65880  Biso   1.000  H
  H314     1.0000 0.42500  0.69050  0.67340  Biso   1.000  H
  H315     1.0000 0.49820  0.71780  0.65110  Biso   1.000  H
  H316     1.0000 0.37740  0.71990  0.49350  Biso   1.000  H
  H317     1.0000 0.42140  0.74580  0.55420  Biso   1.000  H
  H318     1.0000 0.34810  0.71850  0.57650  Biso   1.000  H
  H319     1.0000 0.51700  0.68830  0.46390  Biso   1.000  H
  H320     1.0000 0.56650  0.67160  0.53160  Biso   1.000  H
  H321     1.0000 0.55020  0.71780  0.52460  Biso   1.000  H
  H322     1.0000 0.35530  0.58770  0.35240  Biso   1.000  H
  H323     1.0000 0.28310  0.56670  0.39330  Biso   1.000  H
  H324     1.0000 0.22310  0.63710  0.46560  Biso   1.000  H
  H325     1.0000 0.11230  0.59240  0.37980  Biso   1.000  H
  H326     1.0000 0.16280  0.57540  0.44650  Biso   1.000  H
  H327     1.0000 0.09320  0.61480  0.52850  Biso   1.000  H
  H328     1.0000 0.03220  0.58840  0.48290  Biso   1.000  H
  H329     1.0000 0.00360  0.64350  0.40370  Biso   1.000  H
  H330     1.0000 0.98530  0.65570  0.48650  Biso   1.000  H
  H331     1.0000 0.10920  0.68780  0.49510  Biso   1.000  H
  H332     1.0000 0.06110  0.70570  0.42740  Biso   1.000  H
  H333     1.0000 0.13260  0.66570  0.34490  Biso   1.000  H
  H334     1.0000 0.13950  0.74550  0.37040  Biso   1.000  H
  H335     1.0000 0.16960  0.72570  0.29660  Biso   1.000  H
  H336     1.0000 0.15490  0.80910  0.33040  Biso   1.000  H
  H337     1.0000 0.37270  0.85580  0.29870  Biso   1.000  H
  H338     1.0000 0.56320  0.83070  0.30160  Biso   1.000  H
  H339     1.0000 0.49280  0.84910  0.34890  Biso   1.000  H
  H340     1.0000 0.48630  0.84790  0.26180  Biso   1.000  H
  H341     1.0000 0.55660  0.77150  0.37210  Biso   1.000  H
  H342     1.0000 0.47610  0.74740  0.38310  Biso   1.000  H
  H343     1.0000 0.48620  0.78980  0.41960  Biso   1.000  H
  H344     1.0000 0.54380  0.76630  0.23680  Biso   1.000  H
  H345     1.0000 0.46590  0.78260  0.19740  Biso   1.000  H
  H346     1.0000 0.46220  0.74270  0.24350  Biso   1.000  H
  H347     1.0000 0.06530  0.93150  0.33390  Biso   1.000  H
  H348     1.0000 0.12270  0.87060  0.36040  Biso   1.000  H
  H349     1.0000 0.30590  0.89610  0.22590  Biso   1.000  H
  H350     1.0000 0.24850  0.95700  0.19930  Biso   1.000  H
  H351     1.0000 0.15180  0.55600  0.24260  Biso   1.000  H
  H352     1.0000 0.14540  0.56860  0.15900  Biso   1.000  H
  H353     1.0000 0.01900  0.55540  0.20440  Biso   1.000  H
  H354     1.0000 0.02410  0.60100  0.18420  Biso   1.000  H
  H355     1.0000 0.03030  0.58730  0.26750  Biso   1.000  H
  H356     1.0000 0.49330  0.64070  0.35480  Biso   1.000  H
  H357     1.0000 0.52500  0.65950  0.28020  Biso   1.000  H
  H358     1.0000 0.56550  0.59480  0.28930  Biso   1.000  H
  H359     1.0000 0.50630  0.59940  0.22170  Biso   1.000  H
  H360     1.0000 0.47550  0.58080  0.29660  Biso   1.000  H
  C1       1.0000 0.17080  0.02780  0.12800  Biso   1.000  C
  C2       1.0000 0.22150  0.05340  0.07160  Biso   1.000  C
  C3       1.0000 0.29220  0.07270  0.08660  Biso   1.000  C
  C4       1.0000 0.32470  0.09800  0.03530  Biso   1.000  C
  C5       1.0000 0.28650  0.10420  0.96910  Biso   1.000  C
  C6       1.0000 0.21580  0.08490  0.95420  Biso   1.000  C
  C7       1.0000 0.18330  0.05950  0.00540  Biso   1.000  C
  C8       1.0000 0.40400  0.11600  0.05240  Biso   1.000  C
  C9       1.0000 0.44170  0.10630  0.12740  Biso   1.000  C
  C10      1.0000 0.46780  0.10230  0.99850  Biso   1.000  C
  C11      1.0000 0.39820  0.16190  0.04480  Biso   1.000  C
  C12      1.0000 0.17340  0.08830  0.87980  Biso   1.000  C
  C13      1.0000 0.12610  0.15580  0.91310  Biso   1.000  C
  C14      1.0000 0.03840  0.14760  0.91620  Biso   1.000  C
  C15      1.0000 0.99620  0.17630  0.96880  Biso   1.000  C
  C16      1.0000 0.01280  0.21630  0.95110  Biso   1.000  C
  C17      1.0000 0.09800  0.22540  0.94890  Biso   1.000  C
  C18      1.0000 0.14210  0.19820  0.89490  Biso   1.000  C
  C19      1.0000 0.24690  0.24340  0.85500  Biso   1.000  C
  C20      1.0000 0.33330  0.25250  0.85130  Biso   1.000  C
  C21      1.0000 0.35120  0.29221  0.85810  Biso   1.000  C
  C22      1.0000 0.42880  0.30499  0.85010  Biso   1.000  C
  C23      1.0000 0.48850  0.27810  0.83520  Biso   1.000  C
  C24      1.0000 0.47070  0.23840  0.82840  Biso   1.000  C
  C25      1.0000 0.39310  0.22565  0.83650  Biso   1.000  C
  C26      1.0000 0.53770  0.20970  0.81520  Biso   1.000  C
  C27      1.0000 0.62140  0.22900  0.80540  Biso   1.000  C
  C28      1.0000 0.54720  0.18060  0.87850  Biso   1.000  C
  C29      1.0000 0.52340  0.18610  0.74230  Biso   1.000  C
  C30      1.0000 0.53770  0.40260  0.84210  Biso   1.000  C
  C31      1.0000 0.51780  0.36330  0.83280  Biso   1.000  C
  C32      1.0000 0.44600  0.34920  0.85910  Biso   1.000  C
  C33      1.0000 0.39420  0.37450  0.89470  Biso   1.000  C
  C34      1.0000 0.41410  0.41370  0.90400  Biso   1.000  C
  C35      1.0000 0.10970  0.04900  0.36160  Biso   1.000  C
  C36      1.0000 0.11230  0.07983  0.41790  Biso   1.000  C
  C37      1.0000 0.08160  0.11690  0.40320  Biso   1.000  C
  C38      1.0000 0.08510  0.14612  0.45600  Biso   1.000  C
  C39      1.0000 0.11920  0.13833  0.52340  Biso   1.000  C
  C40      1.0000 0.14990  0.10128  0.53810  Biso   1.000  C
  C41      1.0000 0.14640  0.07203  0.48530  Biso   1.000  C
  C42      1.0000 0.04870  0.18680  0.44030  Biso   1.000  C
  C43      1.0000 0.02670  0.19220  0.35610  Biso   1.000  C
  C44      1.0000 0.10560  0.22080  0.45540  Biso   1.000  C
  C45      1.0000 0.97180  0.19160  0.48400  Biso   1.000  C
  C46      1.0000 0.18700  0.09160  0.61090  Biso   1.000  C
  C47      1.0000 0.30300  0.13230  0.58250  Biso   1.000  C
  C48      1.0000 0.36440  0.09910  0.57230  Biso   1.000  C
  C49      1.0000 0.42920  0.11020  0.52070  Biso   1.000  C
  C50      1.0000 0.47210  0.14840  0.54810  Biso   1.000  C
  C51      1.0000 0.41240  0.18180  0.55380  Biso   1.000  C
  C52      1.0000 0.34430  0.17010  0.60560  Biso   1.000  C
  C53      1.0000 0.31310  0.23520  0.65500  Biso   1.000  C
  C54      1.0000 0.25600  0.26885  0.66630  Biso   1.000  C
  C55      1.0000 0.28946  0.30591  0.67360  Biso   1.000  C
  C56      1.0000 0.24150  0.33831  0.68660  Biso   1.000  C
  C57      1.0000 0.16000  0.33365  0.69240  Biso   1.000  C
  C58      1.0000 0.12653  0.29659  0.68510  Biso   1.000  C
  C59      1.0000 0.17450  0.26419  0.67200  Biso   1.000  C
  C60      1.0000 0.03470  0.29250  0.69050  Biso   1.000  C
  C61      1.0000 0.99430  0.33400  0.69500  Biso   1.000  C
  C62      1.0000 0.00100  0.27370  0.62300  Biso   1.000  C
  C63      1.0000 0.01380  0.26890  0.75940  Biso   1.000  C
  C64      1.0000 0.38580  0.42427  0.68800  Biso   1.000  C
  C65      1.0000 0.35180  0.38811  0.67230  Biso   1.000  C
  C66      1.0000 0.28030  0.37761  0.70440  Biso   1.000  C
  C67      1.0000 0.24300  0.40326  0.75220  Biso   1.000  C
  C68      1.0000 0.27700  0.43943  0.76800  Biso   1.000  C
  C69      1.0000 0.36670  0.07700  0.79050  Biso   1.000  C
  C70      1.0000 0.45630  0.08050  0.78290  Biso   1.000  C
  C71      1.0000 0.01180  0.13980  0.69900  Biso   1.000  C
  C72      1.0000 0.98930  0.10040  0.72500  Biso   1.000  C
  C73      1.0000 0.82920  0.97220  0.12800  Biso   1.000  C
  C74      1.0000 0.77850  0.94660  0.07160  Biso   1.000  C
  C75      1.0000 0.70780  0.92730  0.08660  Biso   1.000  C
  C76      1.0000 0.67530  0.90200  0.03530  Biso   1.000  C
  C77      1.0000 0.71350  0.89580  0.96910  Biso   1.000  C
  C78      1.0000 0.78420  0.91510  0.95420  Biso   1.000  C
  C79      1.0000 0.81670  0.94050  0.00540  Biso   1.000  C
  C80      1.0000 0.59600  0.88400  0.05240  Biso   1.000  C
  C81      1.0000 0.55830  0.89370  0.12740  Biso   1.000  C
  C82      1.0000 0.53220  0.89770  0.99850  Biso   1.000  C
  C83      1.0000 0.60180  0.83810  0.04480  Biso   1.000  C
  C84      1.0000 0.82660  0.91170  0.87980  Biso   1.000  C
  C85      1.0000 0.87390  0.84420  0.91310  Biso   1.000  C
  C86      1.0000 0.96160  0.85240  0.91620  Biso   1.000  C
  C87      1.0000 0.00380  0.82370  0.96880  Biso   1.000  C
  C88      1.0000 0.98720  0.78370  0.95110  Biso   1.000  C
  C89      1.0000 0.90200  0.77460  0.94890  Biso   1.000  C
  C90      1.0000 0.85790  0.80180  0.89490  Biso   1.000  C
  C91      1.0000 0.75310  0.75660  0.85500  Biso   1.000  C
  C92      1.0000 0.66670  0.74750  0.85130  Biso   1.000  C
  C93      1.0000 0.64880  0.70779  0.85810  Biso   1.000  C
  C94      1.0000 0.57120  0.69501  0.85010  Biso   1.000  C
  C95      1.0000 0.51150  0.72190  0.83520  Biso   1.000  C
  C96      1.0000 0.52930  0.76160  0.82840  Biso   1.000  C
  C97      1.0000 0.60690  0.77435  0.83650  Biso   1.000  C
  C98      1.0000 0.46230  0.79030  0.81520  Biso   1.000  C
  C99      1.0000 0.37860  0.77100  0.80540  Biso   1.000  C
  C100     1.0000 0.45280  0.81940  0.87850  Biso   1.000  C
  C101     1.0000 0.47660  0.81390  0.74230  Biso   1.000  C
  C102     1.0000 0.46230  0.59740  0.84210  Biso   1.000  C
  C103     1.0000 0.48220  0.63670  0.83280  Biso   1.000  C
  C104     1.0000 0.55400  0.65080  0.85910  Biso   1.000  C
  C105     1.0000 0.60580  0.62550  0.89470  Biso   1.000  C
  C106     1.0000 0.58590  0.58630  0.90400  Biso   1.000  C
  C107     1.0000 0.89030  0.95100  0.36160  Biso   1.000  C
  C108     1.0000 0.88770  0.92017  0.41790  Biso   1.000  C
  C109     1.0000 0.91840  0.88310  0.40320  Biso   1.000  C
  C110     1.0000 0.91490  0.85388  0.45600  Biso   1.000  C
  C111     1.0000 0.88080  0.86167  0.52340  Biso   1.000  C
  C112     1.0000 0.85010  0.89872  0.53810  Biso   1.000  C
  C113     1.0000 0.85360  0.92797  0.48530  Biso   1.000  C
  C114     1.0000 0.95130  0.81320  0.44030  Biso   1.000  C
  C115     1.0000 0.97330  0.80780  0.35610  Biso   1.000  C
  C116     1.0000 0.89440  0.77920  0.45540  Biso   1.000  C
  C117     1.0000 0.02820  0.80840  0.48400  Biso   1.000  C
  C118     1.0000 0.81300  0.90840  0.61090  Biso   1.000  C
  C119     1.0000 0.69700  0.86770  0.58250  Biso   1.000  C
  C120     1.0000 0.63560  0.90090  0.57230  Biso   1.000  C
  C121     1.0000 0.57080  0.88980  0.52070  Biso   1.000  C
  C122     1.0000 0.52790  0.85160  0.54810  Biso   1.000  C
  C123     1.0000 0.58760  0.81820  0.55380  Biso   1.000  C
  C124     1.0000 0.65570  0.82990  0.60560  Biso   1.000  C
  C125     1.0000 0.68690  0.76480  0.65500  Biso   1.000  C
  C126     1.0000 0.74400  0.73115  0.66630  Biso   1.000  C
  C127     1.0000 0.71054  0.69409  0.67360  Biso   1.000  C
  C128     1.0000 0.75850  0.66169  0.68660  Biso   1.000  C
  C129     1.0000 0.84000  0.66635  0.69240  Biso   1.000  C
  C130     1.0000 0.87347  0.70341  0.68510  Biso   1.000  C
  C131     1.0000 0.82550  0.73581  0.67200  Biso   1.000  C
  C132     1.0000 0.96530  0.70750  0.69050  Biso   1.000  C
  C133     1.0000 0.00570  0.66600  0.69500  Biso   1.000  C
  C134     1.0000 0.99900  0.72630  0.62300  Biso   1.000  C
  C135     1.0000 0.98620  0.73110  0.75940  Biso   1.000  C
  C136     1.0000 0.61420  0.57573  0.68800  Biso   1.000  C
  C137     1.0000 0.64820  0.61189  0.67230  Biso   1.000  C
  C138     1.0000 0.71970  0.62239  0.70440  Biso   1.000  C
  C139     1.0000 0.75700  0.59674  0.75220  Biso   1.000  C
  C140     1.0000 0.72300  0.56057  0.76800  Biso   1.000  C
  C141     1.0000 0.63330  0.92300  0.79050  Biso   1.000  C
  C142     1.0000 0.54370  0.91950  0.78290  Biso   1.000  C
  C143     1.0000 0.98820  0.86020  0.69900  Biso   1.000  C
  C144     1.0000 0.01070  0.89960  0.72500  Biso   1.000  C
  C145     1.0000 0.67080  0.47220  0.87200  Biso   1.000  C
  C146     1.0000 0.72150  0.44660  0.92840  Biso   1.000  C
  C147     1.0000 0.79220  0.42730  0.91340  Biso   1.000  C
  C148     1.0000 0.82470  0.40200  0.96470  Biso   1.000  C
  C149     1.0000 0.78650  0.39580  0.03090  Biso   1.000  C
  C150     1.0000 0.71580  0.41510  0.04580  Biso   1.000  C
  C151     1.0000 0.68330  0.44050  0.99460  Biso   1.000  C
  C152     1.0000 0.90400  0.38400  0.94760  Biso   1.000  C
  C153     1.0000 0.94170  0.39370  0.87260  Biso   1.000  C
  C154     1.0000 0.96780  0.39770  0.00150  Biso   1.000  C
  C155     1.0000 0.89820  0.33810  0.95520  Biso   1.000  C
  C156     1.0000 0.67340  0.41170  0.12020  Biso   1.000  C
  C157     1.0000 0.62610  0.34420  0.08690  Biso   1.000  C
  C158     1.0000 0.53840  0.35240  0.08380  Biso   1.000  C
  C159     1.0000 0.49620  0.32370  0.03120  Biso   1.000  C
  C160     1.0000 0.51280  0.28370  0.04890  Biso   1.000  C
  C161     1.0000 0.59800  0.27460  0.05110  Biso   1.000  C
  C162     1.0000 0.64210  0.30180  0.10510  Biso   1.000  C
  C163     1.0000 0.74690  0.25660  0.14500  Biso   1.000  C
  C164     1.0000 0.83330  0.24750  0.14870  Biso   1.000  C
  C165     1.0000 0.85120  0.20779  0.14190  Biso   1.000  C
  C166     1.0000 0.92880  0.19501  0.14990  Biso   1.000  C
  C167     1.0000 0.98850  0.22190  0.16480  Biso   1.000  C
  C168     1.0000 0.97070  0.26160  0.17160  Biso   1.000  C
  C169     1.0000 0.89310  0.27435  0.16350  Biso   1.000  C
  C170     1.0000 0.03770  0.29030  0.18480  Biso   1.000  C
  C171     1.0000 0.12140  0.27100  0.19460  Biso   1.000  C
  C172     1.0000 0.04720  0.31940  0.12150  Biso   1.000  C
  C173     1.0000 0.02340  0.31390  0.25770  Biso   1.000  C
  C174     1.0000 0.03770  0.09740  0.15790  Biso   1.000  C
  C175     1.0000 0.01780  0.13670  0.16720  Biso   1.000  C
  C176     1.0000 0.94600  0.15080  0.14090  Biso   1.000  C
  C177     1.0000 0.89420  0.12550  0.10530  Biso   1.000  C
  C178     1.0000 0.91410  0.08630  0.09600  Biso   1.000  C
  C179     1.0000 0.60970  0.45100  0.63840  Biso   1.000  C
  C180     1.0000 0.61230  0.42017  0.58210  Biso   1.000  C
  C181     1.0000 0.58160  0.38310  0.59680  Biso   1.000  C
  C182     1.0000 0.58510  0.35388  0.54400  Biso   1.000  C
  C183     1.0000 0.61920  0.36167  0.47660  Biso   1.000  C
  C184     1.0000 0.64990  0.39872  0.46190  Biso   1.000  C
  C185     1.0000 0.64640  0.42797  0.51470  Biso   1.000  C
  C186     1.0000 0.54870  0.31320  0.55970  Biso   1.000  C
  C187     1.0000 0.52670  0.30780  0.64390  Biso   1.000  C
  C188     1.0000 0.60560  0.27920  0.54460  Biso   1.000  C
  C189     1.0000 0.47180  0.30840  0.51600  Biso   1.000  C
  C190     1.0000 0.68700  0.40840  0.38910  Biso   1.000  C
  C191     1.0000 0.80300  0.36770  0.41750  Biso   1.000  C
  C192     1.0000 0.86440  0.40090  0.42770  Biso   1.000  C
  C193     1.0000 0.92920  0.38980  0.47930  Biso   1.000  C
  C194     1.0000 0.97210  0.35160  0.45190  Biso   1.000  C
  C195     1.0000 0.91240  0.31820  0.44620  Biso   1.000  C
  C196     1.0000 0.84430  0.32990  0.39440  Biso   1.000  C
  C197     1.0000 0.81310  0.26480  0.34500  Biso   1.000  C
  C198     1.0000 0.75600  0.23115  0.33370  Biso   1.000  C
  C199     1.0000 0.78946  0.19409  0.32640  Biso   1.000  C
  C200     1.0000 0.74150  0.16169  0.31340  Biso   1.000  C
  C201     1.0000 0.66000  0.16635  0.30760  Biso   1.000  C
  C202     1.0000 0.62653  0.20341  0.31490  Biso   1.000  C
  C203     1.0000 0.67450  0.23581  0.32800  Biso   1.000  C
  C204     1.0000 0.53470  0.20750  0.30950  Biso   1.000  C
  C205     1.0000 0.49430  0.16600  0.30500  Biso   1.000  C
  C206     1.0000 0.50100  0.22630  0.37700  Biso   1.000  C
  C207     1.0000 0.51380  0.23110  0.24060  Biso   1.000  C
  C208     1.0000 0.88580  0.07573  0.31200  Biso   1.000  C
  C209     1.0000 0.85180  0.11189  0.32770  Biso   1.000  C
  C210     1.0000 0.78030  0.12239  0.29560  Biso   1.000  C
  C211     1.0000 0.74300  0.09674  0.24780  Biso   1.000  C
  C212     1.0000 0.77700  0.06057  0.23200  Biso   1.000  C
  C213     1.0000 0.86670  0.42300  0.20950  Biso   1.000  C
  C214     1.0000 0.95630  0.41950  0.21710  Biso   1.000  C
  C215     1.0000 0.51180  0.36020  0.30100  Biso   1.000  C
  C216     1.0000 0.48930  0.39960  0.27500  Biso   1.000  C
  C217     1.0000 0.32920  0.52780  0.87200  Biso   1.000  C
  C218     1.0000 0.27850  0.55340  0.92840  Biso   1.000  C
  C219     1.0000 0.20780  0.57270  0.91340  Biso   1.000  C
  C220     1.0000 0.17530  0.59800  0.96470  Biso   1.000  C
  C221     1.0000 0.21350  0.60420  0.03090  Biso   1.000  C
  C222     1.0000 0.28420  0.58490  0.04580  Biso   1.000  C
  C223     1.0000 0.31670  0.55950  0.99460  Biso   1.000  C
  C224     1.0000 0.09600  0.61600  0.94760  Biso   1.000  C
  C225     1.0000 0.05830  0.60630  0.87260  Biso   1.000  C
  C226     1.0000 0.03220  0.60230  0.00150  Biso   1.000  C
  C227     1.0000 0.10180  0.66190  0.95520  Biso   1.000  C
  C228     1.0000 0.32660  0.58830  0.12020  Biso   1.000  C
  C229     1.0000 0.37390  0.65580  0.08690  Biso   1.000  C
  C230     1.0000 0.46160  0.64760  0.08380  Biso   1.000  C
  C231     1.0000 0.50380  0.67630  0.03120  Biso   1.000  C
  C232     1.0000 0.48720  0.71630  0.04890  Biso   1.000  C
  C233     1.0000 0.40200  0.72540  0.05110  Biso   1.000  C
  C234     1.0000 0.35790  0.69820  0.10510  Biso   1.000  C
  C235     1.0000 0.25310  0.74340  0.14500  Biso   1.000  C
  C236     1.0000 0.16670  0.75250  0.14870  Biso   1.000  C
  C237     1.0000 0.14880  0.79221  0.14190  Biso   1.000  C
  C238     1.0000 0.07120  0.80499  0.14990  Biso   1.000  C
  C239     1.0000 0.01150  0.77810  0.16480  Biso   1.000  C
  C240     1.0000 0.02930  0.73840  0.17160  Biso   1.000  C
  C241     1.0000 0.10690  0.72565  0.16350  Biso   1.000  C
  C242     1.0000 0.96230  0.70970  0.18480  Biso   1.000  C
  C243     1.0000 0.87860  0.72900  0.19460  Biso   1.000  C
  C244     1.0000 0.95280  0.68060  0.12150  Biso   1.000  C
  C245     1.0000 0.97660  0.68610  0.25770  Biso   1.000  C
  C246     1.0000 0.96230  0.90260  0.15790  Biso   1.000  C
  C247     1.0000 0.98220  0.86330  0.16720  Biso   1.000  C
  C248     1.0000 0.05400  0.84920  0.14090  Biso   1.000  C
  C249     1.0000 0.10580  0.87450  0.10530  Biso   1.000  C
  C250     1.0000 0.08590  0.91370  0.09600  Biso   1.000  C
  C251     1.0000 0.39030  0.54900  0.63840  Biso   1.000  C
  C252     1.0000 0.38770  0.57983  0.58210  Biso   1.000  C
  C253     1.0000 0.41840  0.61690  0.59680  Biso   1.000  C
  C254     1.0000 0.41490  0.64612  0.54400  Biso   1.000  C
  C255     1.0000 0.38080  0.63833  0.47660  Biso   1.000  C
  C256     1.0000 0.35010  0.60128  0.46190  Biso   1.000  C
  C257     1.0000 0.35360  0.57203  0.51470  Biso   1.000  C
  C258     1.0000 0.45130  0.68680  0.55970  Biso   1.000  C
  C259     1.0000 0.47330  0.69220  0.64390  Biso   1.000  C
  C260     1.0000 0.39440  0.72080  0.54460  Biso   1.000  C
  C261     1.0000 0.52820  0.69160  0.51600  Biso   1.000  C
  C262     1.0000 0.31300  0.59160  0.38910  Biso   1.000  C
  C263     1.0000 0.19700  0.63230  0.41750  Biso   1.000  C
  C264     1.0000 0.13560  0.59910  0.42770  Biso   1.000  C
  C265     1.0000 0.07080  0.61020  0.47930  Biso   1.000  C
  C266     1.0000 0.02790  0.64840  0.45190  Biso   1.000  C
  C267     1.0000 0.08760  0.68180  0.44620  Biso   1.000  C
  C268     1.0000 0.15570  0.67010  0.39440  Biso   1.000  C
  C269     1.0000 0.18690  0.73520  0.34500  Biso   1.000  C
  C270     1.0000 0.24400  0.76885  0.33370  Biso   1.000  C
  C271     1.0000 0.21054  0.80591  0.32640  Biso   1.000  C
  C272     1.0000 0.25850  0.83831  0.31340  Biso   1.000  C
  C273     1.0000 0.34000  0.83365  0.30760  Biso   1.000  C
  C274     1.0000 0.37347  0.79659  0.31490  Biso   1.000  C
  C275     1.0000 0.32550  0.76419  0.32800  Biso   1.000  C
  C276     1.0000 0.46530  0.79250  0.30950  Biso   1.000  C
  C277     1.0000 0.50570  0.83400  0.30500  Biso   1.000  C
  C278     1.0000 0.49900  0.77370  0.37700  Biso   1.000  C
  C279     1.0000 0.48620  0.76890  0.24060  Biso   1.000  C
  C280     1.0000 0.11420  0.92427  0.31200  Biso   1.000  C
  C281     1.0000 0.14820  0.88811  0.32770  Biso   1.000  C
  C282     1.0000 0.21970  0.87761  0.29560  Biso   1.000  C
  C283     1.0000 0.25700  0.90326  0.24780  Biso   1.000  C
  C284     1.0000 0.22300  0.93943  0.23200  Biso   1.000  C
  C285     1.0000 0.13330  0.57700  0.20950  Biso   1.000  C
  C286     1.0000 0.04370  0.58050  0.21710  Biso   1.000  C
  C287     1.0000 0.48820  0.63980  0.30100  Biso   1.000  C
  C288     1.0000 0.51070  0.60040  0.27500  Biso   1.000  C
  N1       1.0000 0.16940  0.13180  0.85870  Biso   1.000  N
  N2       1.0000 0.22990  0.20360  0.89160  Biso   1.000  N
  N3       1.0000 0.24110  0.12319  0.63610  Biso   1.000  N
  N4       1.0000 0.28180  0.20103  0.61240  Biso   1.000  N
  N5       1.0000 0.48580  0.42780  0.87770  Biso   1.000  N
  N6       1.0000 0.34850  0.44993  0.73590  Biso   1.000  N
  N7       1.0000 0.83060  0.86820  0.85870  Biso   1.000  N
  N8       1.0000 0.77010  0.79640  0.89160  Biso   1.000  N
  N9       1.0000 0.75890  0.87681  0.63610  Biso   1.000  N
  N10      1.0000 0.71820  0.79897  0.61240  Biso   1.000  N
  N11      1.0000 0.51420  0.57220  0.87770  Biso   1.000  N
  N12      1.0000 0.65150  0.55007  0.73590  Biso   1.000  N
  N13      1.0000 0.66940  0.36820  0.14130  Biso   1.000  N
  N14      1.0000 0.72990  0.29640  0.10840  Biso   1.000  N
  N15      1.0000 0.74110  0.37681  0.36390  Biso   1.000  N
  N16      1.0000 0.78180  0.29897  0.38760  Biso   1.000  N
  N17      1.0000 0.98580  0.07220  0.12230  Biso   1.000  N
  N18      1.0000 0.84850  0.05007  0.26410  Biso   1.000  N
  N19      1.0000 0.33060  0.63180  0.14130  Biso   1.000  N
  N20      1.0000 0.27010  0.70360  0.10840  Biso   1.000  N
  N21      1.0000 0.25890  0.62319  0.36390  Biso   1.000  N
  N22      1.0000 0.21820  0.70103  0.38760  Biso   1.000  N
  N23      1.0000 0.01420  0.92780  0.12230  Biso   1.000  N
  N24      1.0000 0.15150  0.94993  0.26410  Biso   1.000  N
  O1       1.0000 0.12040  0.00400  0.10130  Biso   1.000  O
  O2       1.0000 0.20190  0.02930  0.18990  Biso   1.000  O
  O3       1.0000 0.31570  0.12990  0.92100  Biso   1.000  O
  O4       1.0000 0.37490  0.18730  0.83030  Biso   1.000  O
  O5       1.0000 0.32250  0.11150  0.77550  Biso   1.000  O
  O6       1.0000 0.13970  0.01970  0.36870  Biso   1.000  O
  O7       1.0000 0.07940  0.05480  0.30230  Biso   1.000  O
  O8       1.0000 0.12460  0.16577  0.57560  Biso   1.000  O
  O9       1.0000 0.14290  0.22848  0.66990  Biso   1.000  O
  O10      1.0000 0.09260  0.14991  0.71940  Biso   1.000  O
  O11      1.0000 0.23620  0.17503  0.74980  Biso   1.000  O
  O12      1.0000 0.87960  0.99600  0.10130  Biso   1.000  O
  O13      1.0000 0.79810  0.97070  0.18990  Biso   1.000  O
  O14      1.0000 0.68430  0.87010  0.92100  Biso   1.000  O
  O15      1.0000 0.62510  0.81270  0.83030  Biso   1.000  O
  O16      1.0000 0.67750  0.88850  0.77550  Biso   1.000  O
  O17      1.0000 0.86030  0.98030  0.36870  Biso   1.000  O
  O18      1.0000 0.92060  0.94520  0.30230  Biso   1.000  O
  O19      1.0000 0.87540  0.83423  0.57560  Biso   1.000  O
  O20      1.0000 0.85710  0.77152  0.66990  Biso   1.000  O
  O21      1.0000 0.90740  0.85009  0.71940  Biso   1.000  O
  O22      1.0000 0.76380  0.82497  0.74980  Biso   1.000  O
  O23      1.0000 0.62040  0.49600  0.89870  Biso   1.000  O
  O24      1.0000 0.70190  0.47070  0.81010  Biso   1.000  O
  O25      1.0000 0.81570  0.37010  0.07900  Biso   1.000  O
  O26      1.0000 0.87490  0.31270  0.16970  Biso   1.000  O
  O27      1.0000 0.82250  0.38850  0.22450  Biso   1.000  O
  O28      1.0000 0.63970  0.48030  0.63130  Biso   1.000  O
  O29      1.0000 0.57940  0.44520  0.69770  Biso   1.000  O
  O30      1.0000 0.62460  0.33423  0.42440  Biso   1.000  O
  O31      1.0000 0.64290  0.27152  0.33010  Biso   1.000  O
  O32      1.0000 0.59260  0.35009  0.28060  Biso   1.000  O
  O33      1.0000 0.73620  0.32497  0.25020  Biso   1.000  O
  O34      1.0000 0.37960  0.50400  0.89870  Biso   1.000  O
  O35      1.0000 0.29810  0.52930  0.81010  Biso   1.000  O
  O36      1.0000 0.18430  0.62990  0.07900  Biso   1.000  O
  O37      1.0000 0.12510  0.68730  0.16970  Biso   1.000  O
  O38      1.0000 0.17750  0.61150  0.22450  Biso   1.000  O
  O39      1.0000 0.36030  0.51970  0.63130  Biso   1.000  O
  O40      1.0000 0.42060  0.55480  0.69770  Biso   1.000  O
  O41      1.0000 0.37540  0.66577  0.42440  Biso   1.000  O
  O42      1.0000 0.35710  0.72848  0.33010  Biso   1.000  O
  O43      1.0000 0.40740  0.64991  0.28060  Biso   1.000  O
  O44      1.0000 0.26380  0.67503  0.25020  Biso   1.000  O
  O45      1.0000 0.00000  0.00000  0.19970  Biso   1.000  O
  O46      1.0000 0.50000  0.50000  0.80030  Biso   1.000  O
