data_image0
_cell_length_a       26.3758
_cell_length_b       26.3758
_cell_length_c       26.3758
_cell_angle_alpha    90
_cell_angle_beta     90
_cell_angle_gamma    90

_symmetry_space_group_name_H-M    "P 1"
_symmetry_int_tables_number       1

loop_
  _symmetry_equiv_pos_as_xyz
  'x, y, z'

loop_
  _atom_site_label
  _atom_site_occupancy
  _atom_site_fract_x
  _atom_site_fract_y
  _atom_site_fract_z
  _atom_site_thermal_displace_type
  _atom_site_B_iso_or_equiv
  _atom_site_type_symbol
  O1       1.0000 0.24327  0.31677  0.05243  Biso   1.000  O
  C1       1.0000 0.34100  0.38030  0.04220  Biso   1.000  C
  H1       1.0000 0.37480  0.39200  0.05050  Biso   1.000  H
  H2       1.0000 0.32700  0.36370  0.07190  Biso   1.000  H
  C2       1.0000 0.30820  0.42530  0.02840  Biso   1.000  C
  O2       1.0000 0.24327  0.81677  0.55243  Biso   1.000  O
  C3       1.0000 0.34100  0.88030  0.54220  Biso   1.000  C
  H3       1.0000 0.37480  0.89200  0.55050  Biso   1.000  H
  H4       1.0000 0.32700  0.86370  0.57190  Biso   1.000  H
  C4       1.0000 0.30820  0.92530  0.52840  Biso   1.000  C
  O3       1.0000 0.74327  0.31677  0.55243  Biso   1.000  O
  C5       1.0000 0.84100  0.38030  0.54220  Biso   1.000  C
  H5       1.0000 0.87480  0.39200  0.55050  Biso   1.000  H
  H6       1.0000 0.82700  0.36370  0.57190  Biso   1.000  H
  C6       1.0000 0.80820  0.42530  0.52840  Biso   1.000  C
  O4       1.0000 0.74327  0.81677  0.05243  Biso   1.000  O
  C7       1.0000 0.84100  0.88030  0.04220  Biso   1.000  C
  H7       1.0000 0.87480  0.89200  0.05050  Biso   1.000  H
  H8       1.0000 0.82700  0.86370  0.07190  Biso   1.000  H
  C8       1.0000 0.80820  0.92530  0.02840  Biso   1.000  C
  O5       1.0000 0.75673  0.68323  0.05243  Biso   1.000  O
  C9       1.0000 0.65900  0.61970  0.04220  Biso   1.000  C
  H9       1.0000 0.62520  0.60800  0.05050  Biso   1.000  H
  H10      1.0000 0.67300  0.63630  0.07190  Biso   1.000  H
  C10      1.0000 0.69180  0.57470  0.02840  Biso   1.000  C
  O6       1.0000 0.75673  0.18323  0.55243  Biso   1.000  O
  C11      1.0000 0.65900  0.11970  0.54220  Biso   1.000  C
  H11      1.0000 0.62520  0.10800  0.55050  Biso   1.000  H
  H12      1.0000 0.67300  0.13630  0.57190  Biso   1.000  H
  C12      1.0000 0.69180  0.07470  0.52840  Biso   1.000  C
  O7       1.0000 0.25673  0.68323  0.55243  Biso   1.000  O
  C13      1.0000 0.15900  0.61970  0.54220  Biso   1.000  C
  H13      1.0000 0.12520  0.60800  0.55050  Biso   1.000  H
  H14      1.0000 0.17300  0.63630  0.57190  Biso   1.000  H
  C14      1.0000 0.19180  0.57470  0.52840  Biso   1.000  C
  O8       1.0000 0.25673  0.18323  0.05243  Biso   1.000  O
  C15      1.0000 0.15900  0.11970  0.04220  Biso   1.000  C
  H15      1.0000 0.12520  0.10800  0.05050  Biso   1.000  H
  H16      1.0000 0.17300  0.13630  0.07190  Biso   1.000  H
  C16      1.0000 0.19180  0.07470  0.02840  Biso   1.000  C
  O9       1.0000 0.75673  0.31677  0.94757  Biso   1.000  O
  C17      1.0000 0.65900  0.38030  0.95780  Biso   1.000  C
  H17      1.0000 0.62520  0.39200  0.94950  Biso   1.000  H
  H18      1.0000 0.67300  0.36370  0.92810  Biso   1.000  H
  C18      1.0000 0.69180  0.42530  0.97160  Biso   1.000  C
  O10      1.0000 0.75673  0.81677  0.44757  Biso   1.000  O
  C19      1.0000 0.65900  0.88030  0.45780  Biso   1.000  C
  H19      1.0000 0.62520  0.89200  0.44950  Biso   1.000  H
  H20      1.0000 0.67300  0.86370  0.42810  Biso   1.000  H
  C20      1.0000 0.69180  0.92530  0.47160  Biso   1.000  C
  O11      1.0000 0.25673  0.31677  0.44757  Biso   1.000  O
  C21      1.0000 0.15900  0.38030  0.45780  Biso   1.000  C
  H21      1.0000 0.12520  0.39200  0.44950  Biso   1.000  H
  H22      1.0000 0.17300  0.36370  0.42810  Biso   1.000  H
  C22      1.0000 0.19180  0.42530  0.47160  Biso   1.000  C
  O12      1.0000 0.25673  0.81677  0.94757  Biso   1.000  O
  C23      1.0000 0.15900  0.88030  0.95780  Biso   1.000  C
  H23      1.0000 0.12520  0.89200  0.94950  Biso   1.000  H
  H24      1.0000 0.17300  0.86370  0.92810  Biso   1.000  H
  C24      1.0000 0.19180  0.92530  0.97160  Biso   1.000  C
  O13      1.0000 0.24327  0.68323  0.94757  Biso   1.000  O
  C25      1.0000 0.34100  0.61970  0.95780  Biso   1.000  C
  H25      1.0000 0.37480  0.60800  0.94950  Biso   1.000  H
  H26      1.0000 0.32700  0.63630  0.92810  Biso   1.000  H
  C26      1.0000 0.30820  0.57470  0.97160  Biso   1.000  C
  O14      1.0000 0.24327  0.18323  0.44757  Biso   1.000  O
  C27      1.0000 0.34100  0.11970  0.45780  Biso   1.000  C
  H27      1.0000 0.37480  0.10800  0.44950  Biso   1.000  H
  H28      1.0000 0.32700  0.13630  0.42810  Biso   1.000  H
  C28      1.0000 0.30820  0.07470  0.47160  Biso   1.000  C
  O15      1.0000 0.74327  0.68323  0.44757  Biso   1.000  O
  C29      1.0000 0.84100  0.61970  0.45780  Biso   1.000  C
  H29      1.0000 0.87480  0.60800  0.44950  Biso   1.000  H
  H30      1.0000 0.82700  0.63630  0.42810  Biso   1.000  H
  C30      1.0000 0.80820  0.57470  0.47160  Biso   1.000  C
  O16      1.0000 0.74327  0.18323  0.94757  Biso   1.000  O
  C31      1.0000 0.84100  0.11970  0.95780  Biso   1.000  C
  H31      1.0000 0.87480  0.10800  0.94950  Biso   1.000  H
  H32      1.0000 0.82700  0.13630  0.92810  Biso   1.000  H
  C32      1.0000 0.80820  0.07470  0.97160  Biso   1.000  C
  O17      1.0000 0.05243  0.24327  0.31677  Biso   1.000  O
  C33      1.0000 0.04220  0.34100  0.38030  Biso   1.000  C
  H33      1.0000 0.05050  0.37480  0.39200  Biso   1.000  H
  H34      1.0000 0.07190  0.32700  0.36370  Biso   1.000  H
  C34      1.0000 0.02840  0.30820  0.42530  Biso   1.000  C
  O18      1.0000 0.05243  0.74327  0.81677  Biso   1.000  O
  C35      1.0000 0.04220  0.84100  0.88030  Biso   1.000  C
  H35      1.0000 0.05050  0.87480  0.89200  Biso   1.000  H
  H36      1.0000 0.07190  0.82700  0.86370  Biso   1.000  H
  C36      1.0000 0.02840  0.80820  0.92530  Biso   1.000  C
  O19      1.0000 0.55243  0.24327  0.81677  Biso   1.000  O
  C37      1.0000 0.54220  0.34100  0.88030  Biso   1.000  C
  H37      1.0000 0.55050  0.37480  0.89200  Biso   1.000  H
  H38      1.0000 0.57190  0.32700  0.86370  Biso   1.000  H
  C38      1.0000 0.52840  0.30820  0.92530  Biso   1.000  C
  O20      1.0000 0.55243  0.74327  0.31677  Biso   1.000  O
  C39      1.0000 0.54220  0.84100  0.38030  Biso   1.000  C
  H39      1.0000 0.55050  0.87480  0.39200  Biso   1.000  H
  H40      1.0000 0.57190  0.82700  0.36370  Biso   1.000  H
  C40      1.0000 0.52840  0.80820  0.42530  Biso   1.000  C
  O21      1.0000 0.05243  0.75673  0.68323  Biso   1.000  O
  C41      1.0000 0.04220  0.65900  0.61970  Biso   1.000  C
  H41      1.0000 0.05050  0.62520  0.60800  Biso   1.000  H
  H42      1.0000 0.07190  0.67300  0.63630  Biso   1.000  H
  C42      1.0000 0.02840  0.69180  0.57470  Biso   1.000  C
  O22      1.0000 0.05243  0.25673  0.18323  Biso   1.000  O
  C43      1.0000 0.04220  0.15900  0.11970  Biso   1.000  C
  H43      1.0000 0.05050  0.12520  0.10800  Biso   1.000  H
  H44      1.0000 0.07190  0.17300  0.13630  Biso   1.000  H
  C44      1.0000 0.02840  0.19180  0.07470  Biso   1.000  C
  O23      1.0000 0.55243  0.75673  0.18323  Biso   1.000  O
  C45      1.0000 0.54220  0.65900  0.11970  Biso   1.000  C
  H45      1.0000 0.55050  0.62520  0.10800  Biso   1.000  H
  H46      1.0000 0.57190  0.67300  0.13630  Biso   1.000  H
  C46      1.0000 0.52840  0.69180  0.07470  Biso   1.000  C
  O24      1.0000 0.55243  0.25673  0.68323  Biso   1.000  O
  C47      1.0000 0.54220  0.15900  0.61970  Biso   1.000  C
  H47      1.0000 0.55050  0.12520  0.60800  Biso   1.000  H
  H48      1.0000 0.57190  0.17300  0.63630  Biso   1.000  H
  C48      1.0000 0.52840  0.19180  0.57470  Biso   1.000  C
  O25      1.0000 0.94757  0.75673  0.31677  Biso   1.000  O
  C49      1.0000 0.95780  0.65900  0.38030  Biso   1.000  C
  H49      1.0000 0.94950  0.62520  0.39200  Biso   1.000  H
  H50      1.0000 0.92810  0.67300  0.36370  Biso   1.000  H
  C50      1.0000 0.97160  0.69180  0.42530  Biso   1.000  C
  O26      1.0000 0.94757  0.25673  0.81677  Biso   1.000  O
  C51      1.0000 0.95780  0.15900  0.88030  Biso   1.000  C
  H51      1.0000 0.94950  0.12520  0.89200  Biso   1.000  H
  H52      1.0000 0.92810  0.17300  0.86370  Biso   1.000  H
  C52      1.0000 0.97160  0.19180  0.92530  Biso   1.000  C
  O27      1.0000 0.44757  0.75673  0.81677  Biso   1.000  O
  C53      1.0000 0.45780  0.65900  0.88030  Biso   1.000  C
  H53      1.0000 0.44950  0.62520  0.89200  Biso   1.000  H
  H54      1.0000 0.42810  0.67300  0.86370  Biso   1.000  H
  C54      1.0000 0.47160  0.69180  0.92530  Biso   1.000  C
  O28      1.0000 0.44757  0.25673  0.31677  Biso   1.000  O
  C55      1.0000 0.45780  0.15900  0.38030  Biso   1.000  C
  H55      1.0000 0.44950  0.12520  0.39200  Biso   1.000  H
  H56      1.0000 0.42810  0.17300  0.36370  Biso   1.000  H
  C56      1.0000 0.47160  0.19180  0.42530  Biso   1.000  C
  O29      1.0000 0.94757  0.24327  0.68323  Biso   1.000  O
  C57      1.0000 0.95780  0.34100  0.61970  Biso   1.000  C
  H57      1.0000 0.94950  0.37480  0.60800  Biso   1.000  H
  H58      1.0000 0.92810  0.32700  0.63630  Biso   1.000  H
  C58      1.0000 0.97160  0.30820  0.57470  Biso   1.000  C
  O30      1.0000 0.94757  0.74327  0.18323  Biso   1.000  O
  C59      1.0000 0.95780  0.84100  0.11970  Biso   1.000  C
  H59      1.0000 0.94950  0.87480  0.10800  Biso   1.000  H
  H60      1.0000 0.92810  0.82700  0.13630  Biso   1.000  H
  C60      1.0000 0.97160  0.80820  0.07470  Biso   1.000  C
  O31      1.0000 0.44757  0.24327  0.18323  Biso   1.000  O
  C61      1.0000 0.45780  0.34100  0.11970  Biso   1.000  C
  H61      1.0000 0.44950  0.37480  0.10800  Biso   1.000  H
  H62      1.0000 0.42810  0.32700  0.13630  Biso   1.000  H
  C62      1.0000 0.47160  0.30820  0.07470  Biso   1.000  C
  O32      1.0000 0.44757  0.74327  0.68323  Biso   1.000  O
  C63      1.0000 0.45780  0.84100  0.61970  Biso   1.000  C
  H63      1.0000 0.44950  0.87480  0.60800  Biso   1.000  H
  H64      1.0000 0.42810  0.82700  0.63630  Biso   1.000  H
  C64      1.0000 0.47160  0.80820  0.57470  Biso   1.000  C
  O33      1.0000 0.31677  0.05243  0.24327  Biso   1.000  O
  C65      1.0000 0.38030  0.04220  0.34100  Biso   1.000  C
  H65      1.0000 0.39200  0.05050  0.37480  Biso   1.000  H
  H66      1.0000 0.36370  0.07190  0.32700  Biso   1.000  H
  C66      1.0000 0.42530  0.02840  0.30820  Biso   1.000  C
  O34      1.0000 0.31677  0.55243  0.74327  Biso   1.000  O
  C67      1.0000 0.38030  0.54220  0.84100  Biso   1.000  C
  H67      1.0000 0.39200  0.55050  0.87480  Biso   1.000  H
  H68      1.0000 0.36370  0.57190  0.82700  Biso   1.000  H
  C68      1.0000 0.42530  0.52840  0.80820  Biso   1.000  C
  O35      1.0000 0.81677  0.05243  0.74327  Biso   1.000  O
  C69      1.0000 0.88030  0.04220  0.84100  Biso   1.000  C
  H69      1.0000 0.89200  0.05050  0.87480  Biso   1.000  H
  H70      1.0000 0.86370  0.07190  0.82700  Biso   1.000  H
  C70      1.0000 0.92530  0.02840  0.80820  Biso   1.000  C
  O36      1.0000 0.81677  0.55243  0.24327  Biso   1.000  O
  C71      1.0000 0.88030  0.54220  0.34100  Biso   1.000  C
  H71      1.0000 0.89200  0.55050  0.37480  Biso   1.000  H
  H72      1.0000 0.86370  0.57190  0.32700  Biso   1.000  H
  C72      1.0000 0.92530  0.52840  0.30820  Biso   1.000  C
  O37      1.0000 0.68323  0.05243  0.75673  Biso   1.000  O
  C73      1.0000 0.61970  0.04220  0.65900  Biso   1.000  C
  H73      1.0000 0.60800  0.05050  0.62520  Biso   1.000  H
  H74      1.0000 0.63630  0.07190  0.67300  Biso   1.000  H
  C74      1.0000 0.57470  0.02840  0.69180  Biso   1.000  C
  O38      1.0000 0.68323  0.55243  0.25673  Biso   1.000  O
  C75      1.0000 0.61970  0.54220  0.15900  Biso   1.000  C
  H75      1.0000 0.60800  0.55050  0.12520  Biso   1.000  H
  H76      1.0000 0.63630  0.57190  0.17300  Biso   1.000  H
  C76      1.0000 0.57470  0.52840  0.19180  Biso   1.000  C
  O39      1.0000 0.18323  0.05243  0.25673  Biso   1.000  O
  C77      1.0000 0.11970  0.04220  0.15900  Biso   1.000  C
  H77      1.0000 0.10800  0.05050  0.12520  Biso   1.000  H
  H78      1.0000 0.13630  0.07190  0.17300  Biso   1.000  H
  C78      1.0000 0.07470  0.02840  0.19180  Biso   1.000  C
  O40      1.0000 0.18323  0.55243  0.75673  Biso   1.000  O
  C79      1.0000 0.11970  0.54220  0.65900  Biso   1.000  C
  H79      1.0000 0.10800  0.55050  0.62520  Biso   1.000  H
  H80      1.0000 0.13630  0.57190  0.67300  Biso   1.000  H
  C80      1.0000 0.07470  0.52840  0.69180  Biso   1.000  C
  O41      1.0000 0.31677  0.94757  0.75673  Biso   1.000  O
  C81      1.0000 0.38030  0.95780  0.65900  Biso   1.000  C
  H81      1.0000 0.39200  0.94950  0.62520  Biso   1.000  H
  H82      1.0000 0.36370  0.92810  0.67300  Biso   1.000  H
  C82      1.0000 0.42530  0.97160  0.69180  Biso   1.000  C
  O42      1.0000 0.31677  0.44757  0.25673  Biso   1.000  O
  C83      1.0000 0.38030  0.45780  0.15900  Biso   1.000  C
  H83      1.0000 0.39200  0.44950  0.12520  Biso   1.000  H
  H84      1.0000 0.36370  0.42810  0.17300  Biso   1.000  H
  C84      1.0000 0.42530  0.47160  0.19180  Biso   1.000  C
  O43      1.0000 0.81677  0.94757  0.25673  Biso   1.000  O
  C85      1.0000 0.88030  0.95780  0.15900  Biso   1.000  C
  H85      1.0000 0.89200  0.94950  0.12520  Biso   1.000  H
  H86      1.0000 0.86370  0.92810  0.17300  Biso   1.000  H
  C86      1.0000 0.92530  0.97160  0.19180  Biso   1.000  C
  O44      1.0000 0.81677  0.44757  0.75673  Biso   1.000  O
  C87      1.0000 0.88030  0.45780  0.65900  Biso   1.000  C
  H87      1.0000 0.89200  0.44950  0.62520  Biso   1.000  H
  H88      1.0000 0.86370  0.42810  0.67300  Biso   1.000  H
  C88      1.0000 0.92530  0.47160  0.69180  Biso   1.000  C
  O45      1.0000 0.68323  0.94757  0.24327  Biso   1.000  O
  C89      1.0000 0.61970  0.95780  0.34100  Biso   1.000  C
  H89      1.0000 0.60800  0.94950  0.37480  Biso   1.000  H
  H90      1.0000 0.63630  0.92810  0.32700  Biso   1.000  H
  C90      1.0000 0.57470  0.97160  0.30820  Biso   1.000  C
  O46      1.0000 0.68323  0.44757  0.74327  Biso   1.000  O
  C91      1.0000 0.61970  0.45780  0.84100  Biso   1.000  C
  H91      1.0000 0.60800  0.44950  0.87480  Biso   1.000  H
  H92      1.0000 0.63630  0.42810  0.82700  Biso   1.000  H
  C92      1.0000 0.57470  0.47160  0.80820  Biso   1.000  C
  O47      1.0000 0.18323  0.94757  0.74327  Biso   1.000  O
  C93      1.0000 0.11970  0.95780  0.84100  Biso   1.000  C
  H93      1.0000 0.10800  0.94950  0.87480  Biso   1.000  H
  H94      1.0000 0.13630  0.92810  0.82700  Biso   1.000  H
  C94      1.0000 0.07470  0.97160  0.80820  Biso   1.000  C
  O48      1.0000 0.18323  0.44757  0.24327  Biso   1.000  O
  C95      1.0000 0.11970  0.45780  0.34100  Biso   1.000  C
  H95      1.0000 0.10800  0.44950  0.37480  Biso   1.000  H
  H96      1.0000 0.13630  0.42810  0.32700  Biso   1.000  H
  C96      1.0000 0.07470  0.47160  0.30820  Biso   1.000  C
  O49      1.0000 0.31677  0.24327  0.94757  Biso   1.000  O
  C97      1.0000 0.38030  0.34100  0.95780  Biso   1.000  C
  H97      1.0000 0.39200  0.37480  0.94950  Biso   1.000  H
  H98      1.0000 0.36370  0.32700  0.92810  Biso   1.000  H
  C98      1.0000 0.42530  0.30820  0.97160  Biso   1.000  C
  O50      1.0000 0.31677  0.74327  0.44757  Biso   1.000  O
  C99      1.0000 0.38030  0.84100  0.45780  Biso   1.000  C
  H99      1.0000 0.39200  0.87480  0.44950  Biso   1.000  H
  H100     1.0000 0.36370  0.82700  0.42810  Biso   1.000  H
  C100     1.0000 0.42530  0.80820  0.47160  Biso   1.000  C
  O51      1.0000 0.81677  0.24327  0.44757  Biso   1.000  O
  C101     1.0000 0.88030  0.34100  0.45780  Biso   1.000  C
  H101     1.0000 0.89200  0.37480  0.44950  Biso   1.000  H
  H102     1.0000 0.86370  0.32700  0.42810  Biso   1.000  H
  C102     1.0000 0.92530  0.30820  0.47160  Biso   1.000  C
  O52      1.0000 0.81677  0.74327  0.94757  Biso   1.000  O
  C103     1.0000 0.88030  0.84100  0.95780  Biso   1.000  C
  H103     1.0000 0.89200  0.87480  0.94950  Biso   1.000  H
  H104     1.0000 0.86370  0.82700  0.92810  Biso   1.000  H
  C104     1.0000 0.92530  0.80820  0.97160  Biso   1.000  C
  O53      1.0000 0.68323  0.75673  0.94757  Biso   1.000  O
  C105     1.0000 0.61970  0.65900  0.95780  Biso   1.000  C
  H105     1.0000 0.60800  0.62520  0.94950  Biso   1.000  H
  H106     1.0000 0.63630  0.67300  0.92810  Biso   1.000  H
  C106     1.0000 0.57470  0.69180  0.97160  Biso   1.000  C
  O54      1.0000 0.68323  0.25673  0.44757  Biso   1.000  O
  C107     1.0000 0.61970  0.15900  0.45780  Biso   1.000  C
  H107     1.0000 0.60800  0.12520  0.44950  Biso   1.000  H
  H108     1.0000 0.63630  0.17300  0.42810  Biso   1.000  H
  C108     1.0000 0.57470  0.19180  0.47160  Biso   1.000  C
  O55      1.0000 0.18323  0.75673  0.44757  Biso   1.000  O
  C109     1.0000 0.11970  0.65900  0.45780  Biso   1.000  C
  H109     1.0000 0.10800  0.62520  0.44950  Biso   1.000  H
  H110     1.0000 0.13630  0.67300  0.42810  Biso   1.000  H
  C110     1.0000 0.07470  0.69180  0.47160  Biso   1.000  C
  O56      1.0000 0.18323  0.25673  0.94757  Biso   1.000  O
  C111     1.0000 0.11970  0.15900  0.95780  Biso   1.000  C
  H111     1.0000 0.10800  0.12520  0.94950  Biso   1.000  H
  H112     1.0000 0.13630  0.17300  0.92810  Biso   1.000  H
  C112     1.0000 0.07470  0.19180  0.97160  Biso   1.000  C
  O57      1.0000 0.31677  0.75673  0.05243  Biso   1.000  O
  C113     1.0000 0.38030  0.65900  0.04220  Biso   1.000  C
  H113     1.0000 0.39200  0.62520  0.05050  Biso   1.000  H
  H114     1.0000 0.36370  0.67300  0.07190  Biso   1.000  H
  C114     1.0000 0.42530  0.69180  0.02840  Biso   1.000  C
  O58      1.0000 0.31677  0.25673  0.55243  Biso   1.000  O
  C115     1.0000 0.38030  0.15900  0.54220  Biso   1.000  C
  H115     1.0000 0.39200  0.12520  0.55050  Biso   1.000  H
  H116     1.0000 0.36370  0.17300  0.57190  Biso   1.000  H
  C116     1.0000 0.42530  0.19180  0.52840  Biso   1.000  C
  O59      1.0000 0.81677  0.75673  0.55243  Biso   1.000  O
  C117     1.0000 0.88030  0.65900  0.54220  Biso   1.000  C
  H117     1.0000 0.89200  0.62520  0.55050  Biso   1.000  H
  H118     1.0000 0.86370  0.67300  0.57190  Biso   1.000  H
  C118     1.0000 0.92530  0.69180  0.52840  Biso   1.000  C
  O60      1.0000 0.81677  0.25673  0.05243  Biso   1.000  O
  C119     1.0000 0.88030  0.15900  0.04220  Biso   1.000  C
  H119     1.0000 0.89200  0.12520  0.05050  Biso   1.000  H
  H120     1.0000 0.86370  0.17300  0.07190  Biso   1.000  H
  C120     1.0000 0.92530  0.19180  0.02840  Biso   1.000  C
  O61      1.0000 0.68323  0.24327  0.05243  Biso   1.000  O
  C121     1.0000 0.61970  0.34100  0.04220  Biso   1.000  C
  H121     1.0000 0.60800  0.37480  0.05050  Biso   1.000  H
  H122     1.0000 0.63630  0.32700  0.07190  Biso   1.000  H
  C122     1.0000 0.57470  0.30820  0.02840  Biso   1.000  C
  O62      1.0000 0.68323  0.74327  0.55243  Biso   1.000  O
  C123     1.0000 0.61970  0.84100  0.54220  Biso   1.000  C
  H123     1.0000 0.60800  0.87480  0.55050  Biso   1.000  H
  H124     1.0000 0.63630  0.82700  0.57190  Biso   1.000  H
  C124     1.0000 0.57470  0.80820  0.52840  Biso   1.000  C
  O63      1.0000 0.18323  0.24327  0.55243  Biso   1.000  O
  C125     1.0000 0.11970  0.34100  0.54220  Biso   1.000  C
  H125     1.0000 0.10800  0.37480  0.55050  Biso   1.000  H
  H126     1.0000 0.13630  0.32700  0.57190  Biso   1.000  H
  C126     1.0000 0.07470  0.30820  0.52840  Biso   1.000  C
  O64      1.0000 0.18323  0.74327  0.05243  Biso   1.000  O
  C127     1.0000 0.11970  0.84100  0.04220  Biso   1.000  C
  H127     1.0000 0.10800  0.87480  0.05050  Biso   1.000  H
  H128     1.0000 0.13630  0.82700  0.07190  Biso   1.000  H
  C128     1.0000 0.07470  0.80820  0.02840  Biso   1.000  C
  O65      1.0000 0.24327  0.05243  0.68323  Biso   1.000  O
  C129     1.0000 0.34100  0.04220  0.61970  Biso   1.000  C
  H129     1.0000 0.37480  0.05050  0.60800  Biso   1.000  H
  H130     1.0000 0.32700  0.07190  0.63630  Biso   1.000  H
  C130     1.0000 0.30820  0.02840  0.57470  Biso   1.000  C
  O66      1.0000 0.24327  0.55243  0.18323  Biso   1.000  O
  C131     1.0000 0.34100  0.54220  0.11970  Biso   1.000  C
  H131     1.0000 0.37480  0.55050  0.10800  Biso   1.000  H
  H132     1.0000 0.32700  0.57190  0.13630  Biso   1.000  H
  C132     1.0000 0.30820  0.52840  0.07470  Biso   1.000  C
  O67      1.0000 0.74327  0.05243  0.18323  Biso   1.000  O
  C133     1.0000 0.84100  0.04220  0.11970  Biso   1.000  C
  H133     1.0000 0.87480  0.05050  0.10800  Biso   1.000  H
  H134     1.0000 0.82700  0.07190  0.13630  Biso   1.000  H
  C134     1.0000 0.80820  0.02840  0.07470  Biso   1.000  C
  O68      1.0000 0.74327  0.55243  0.68323  Biso   1.000  O
  C135     1.0000 0.84100  0.54220  0.61970  Biso   1.000  C
  H135     1.0000 0.87480  0.55050  0.60800  Biso   1.000  H
  H136     1.0000 0.82700  0.57190  0.63630  Biso   1.000  H
  C136     1.0000 0.80820  0.52840  0.57470  Biso   1.000  C
  O69      1.0000 0.75673  0.05243  0.31677  Biso   1.000  O
  C137     1.0000 0.65900  0.04220  0.38030  Biso   1.000  C
  H137     1.0000 0.62520  0.05050  0.39200  Biso   1.000  H
  H138     1.0000 0.67300  0.07190  0.36370  Biso   1.000  H
  C138     1.0000 0.69180  0.02840  0.42530  Biso   1.000  C
  O70      1.0000 0.75673  0.55243  0.81677  Biso   1.000  O
  C139     1.0000 0.65900  0.54220  0.88030  Biso   1.000  C
  H139     1.0000 0.62520  0.55050  0.89200  Biso   1.000  H
  H140     1.0000 0.67300  0.57190  0.86370  Biso   1.000  H
  C140     1.0000 0.69180  0.52840  0.92530  Biso   1.000  C
  O71      1.0000 0.25673  0.05243  0.81677  Biso   1.000  O
  C141     1.0000 0.15900  0.04220  0.88030  Biso   1.000  C
  H141     1.0000 0.12520  0.05050  0.89200  Biso   1.000  H
  H142     1.0000 0.17300  0.07190  0.86370  Biso   1.000  H
  C142     1.0000 0.19180  0.02840  0.92530  Biso   1.000  C
  O72      1.0000 0.25673  0.55243  0.31677  Biso   1.000  O
  C143     1.0000 0.15900  0.54220  0.38030  Biso   1.000  C
  H143     1.0000 0.12520  0.55050  0.39200  Biso   1.000  H
  H144     1.0000 0.17300  0.57190  0.36370  Biso   1.000  H
  C144     1.0000 0.19180  0.52840  0.42530  Biso   1.000  C
  O73      1.0000 0.75673  0.94757  0.68323  Biso   1.000  O
  C145     1.0000 0.65900  0.95780  0.61970  Biso   1.000  C
  H145     1.0000 0.62520  0.94950  0.60800  Biso   1.000  H
  H146     1.0000 0.67300  0.92810  0.63630  Biso   1.000  H
  C146     1.0000 0.69180  0.97160  0.57470  Biso   1.000  C
  O74      1.0000 0.75673  0.44757  0.18323  Biso   1.000  O
  C147     1.0000 0.65900  0.45780  0.11970  Biso   1.000  C
  H147     1.0000 0.62520  0.44950  0.10800  Biso   1.000  H
  H148     1.0000 0.67300  0.42810  0.13630  Biso   1.000  H
  C148     1.0000 0.69180  0.47160  0.07470  Biso   1.000  C
  O75      1.0000 0.25673  0.94757  0.18323  Biso   1.000  O
  C149     1.0000 0.15900  0.95780  0.11970  Biso   1.000  C
  H149     1.0000 0.12520  0.94950  0.10800  Biso   1.000  H
  H150     1.0000 0.17300  0.92810  0.13630  Biso   1.000  H
  C150     1.0000 0.19180  0.97160  0.07470  Biso   1.000  C
  O76      1.0000 0.25673  0.44757  0.68323  Biso   1.000  O
  C151     1.0000 0.15900  0.45780  0.61970  Biso   1.000  C
  H151     1.0000 0.12520  0.44950  0.60800  Biso   1.000  H
  H152     1.0000 0.17300  0.42810  0.63630  Biso   1.000  H
  C152     1.0000 0.19180  0.47160  0.57470  Biso   1.000  C
  O77      1.0000 0.24327  0.94757  0.31677  Biso   1.000  O
  C153     1.0000 0.34100  0.95780  0.38030  Biso   1.000  C
  H153     1.0000 0.37480  0.94950  0.39200  Biso   1.000  H
  H154     1.0000 0.32700  0.92810  0.36370  Biso   1.000  H
  C154     1.0000 0.30820  0.97160  0.42530  Biso   1.000  C
  O78      1.0000 0.24327  0.44757  0.81677  Biso   1.000  O
  C155     1.0000 0.34100  0.45780  0.88030  Biso   1.000  C
  H155     1.0000 0.37480  0.44950  0.89200  Biso   1.000  H
  H156     1.0000 0.32700  0.42810  0.86370  Biso   1.000  H
  C156     1.0000 0.30820  0.47160  0.92530  Biso   1.000  C
  O79      1.0000 0.74327  0.94757  0.81677  Biso   1.000  O
  C157     1.0000 0.84100  0.95780  0.88030  Biso   1.000  C
  H157     1.0000 0.87480  0.94950  0.89200  Biso   1.000  H
  H158     1.0000 0.82700  0.92810  0.86370  Biso   1.000  H
  C158     1.0000 0.80820  0.97160  0.92530  Biso   1.000  C
  O80      1.0000 0.74327  0.44757  0.31677  Biso   1.000  O
  C159     1.0000 0.84100  0.45780  0.38030  Biso   1.000  C
  H159     1.0000 0.87480  0.44950  0.39200  Biso   1.000  H
  H160     1.0000 0.82700  0.42810  0.36370  Biso   1.000  H
  C160     1.0000 0.80820  0.47160  0.42530  Biso   1.000  C
  O81      1.0000 0.05243  0.31677  0.75673  Biso   1.000  O
  C161     1.0000 0.04220  0.38030  0.65900  Biso   1.000  C
  H161     1.0000 0.05050  0.39200  0.62520  Biso   1.000  H
  H162     1.0000 0.07190  0.36370  0.67300  Biso   1.000  H
  C162     1.0000 0.02840  0.42530  0.69180  Biso   1.000  C
  O82      1.0000 0.05243  0.81677  0.25673  Biso   1.000  O
  C163     1.0000 0.04220  0.88030  0.15900  Biso   1.000  C
  H163     1.0000 0.05050  0.89200  0.12520  Biso   1.000  H
  H164     1.0000 0.07190  0.86370  0.17300  Biso   1.000  H
  C164     1.0000 0.02840  0.92530  0.19180  Biso   1.000  C
  O83      1.0000 0.55243  0.31677  0.25673  Biso   1.000  O
  C165     1.0000 0.54220  0.38030  0.15900  Biso   1.000  C
  H165     1.0000 0.55050  0.39200  0.12520  Biso   1.000  H
  H166     1.0000 0.57190  0.36370  0.17300  Biso   1.000  H
  C166     1.0000 0.52840  0.42530  0.19180  Biso   1.000  C
  O84      1.0000 0.55243  0.81677  0.75673  Biso   1.000  O
  C167     1.0000 0.54220  0.88030  0.65900  Biso   1.000  C
  H167     1.0000 0.55050  0.89200  0.62520  Biso   1.000  H
  H168     1.0000 0.57190  0.86370  0.67300  Biso   1.000  H
  C168     1.0000 0.52840  0.92530  0.69180  Biso   1.000  C
  O85      1.0000 0.05243  0.68323  0.24327  Biso   1.000  O
  C169     1.0000 0.04220  0.61970  0.34100  Biso   1.000  C
  H169     1.0000 0.05050  0.60800  0.37480  Biso   1.000  H
  H170     1.0000 0.07190  0.63630  0.32700  Biso   1.000  H
  C170     1.0000 0.02840  0.57470  0.30820  Biso   1.000  C
  O86      1.0000 0.05243  0.18323  0.74327  Biso   1.000  O
  C171     1.0000 0.04220  0.11970  0.84100  Biso   1.000  C
  H171     1.0000 0.05050  0.10800  0.87480  Biso   1.000  H
  H172     1.0000 0.07190  0.13630  0.82700  Biso   1.000  H
  C172     1.0000 0.02840  0.07470  0.80820  Biso   1.000  C
  O87      1.0000 0.55243  0.68323  0.74327  Biso   1.000  O
  C173     1.0000 0.54220  0.61970  0.84100  Biso   1.000  C
  H173     1.0000 0.55050  0.60800  0.87480  Biso   1.000  H
  H174     1.0000 0.57190  0.63630  0.82700  Biso   1.000  H
  C174     1.0000 0.52840  0.57470  0.80820  Biso   1.000  C
  O88      1.0000 0.55243  0.18323  0.24327  Biso   1.000  O
  C175     1.0000 0.54220  0.11970  0.34100  Biso   1.000  C
  H175     1.0000 0.55050  0.10800  0.37480  Biso   1.000  H
  H176     1.0000 0.57190  0.13630  0.32700  Biso   1.000  H
  C176     1.0000 0.52840  0.07470  0.30820  Biso   1.000  C
  O89      1.0000 0.94757  0.31677  0.24327  Biso   1.000  O
  C177     1.0000 0.95780  0.38030  0.34100  Biso   1.000  C
  H177     1.0000 0.94950  0.39200  0.37480  Biso   1.000  H
  H178     1.0000 0.92810  0.36370  0.32700  Biso   1.000  H
  C178     1.0000 0.97160  0.42530  0.30820  Biso   1.000  C
  O90      1.0000 0.94757  0.81677  0.74327  Biso   1.000  O
  C179     1.0000 0.95780  0.88030  0.84100  Biso   1.000  C
  H179     1.0000 0.94950  0.89200  0.87480  Biso   1.000  H
  H180     1.0000 0.92810  0.86370  0.82700  Biso   1.000  H
  C180     1.0000 0.97160  0.92530  0.80820  Biso   1.000  C
  O91      1.0000 0.44757  0.31677  0.74327  Biso   1.000  O
  C181     1.0000 0.45780  0.38030  0.84100  Biso   1.000  C
  H181     1.0000 0.44950  0.39200  0.87480  Biso   1.000  H
  H182     1.0000 0.42810  0.36370  0.82700  Biso   1.000  H
  C182     1.0000 0.47160  0.42530  0.80820  Biso   1.000  C
  O92      1.0000 0.44757  0.81677  0.24327  Biso   1.000  O
  C183     1.0000 0.45780  0.88030  0.34100  Biso   1.000  C
  H183     1.0000 0.44950  0.89200  0.37480  Biso   1.000  H
  H184     1.0000 0.42810  0.86370  0.32700  Biso   1.000  H
  C184     1.0000 0.47160  0.92530  0.30820  Biso   1.000  C
  O93      1.0000 0.94757  0.68323  0.75673  Biso   1.000  O
  C185     1.0000 0.95780  0.61970  0.65900  Biso   1.000  C
  H185     1.0000 0.94950  0.60800  0.62520  Biso   1.000  H
  H186     1.0000 0.92810  0.63630  0.67300  Biso   1.000  H
  C186     1.0000 0.97160  0.57470  0.69180  Biso   1.000  C
  O94      1.0000 0.94757  0.18323  0.25673  Biso   1.000  O
  C187     1.0000 0.95780  0.11970  0.15900  Biso   1.000  C
  H187     1.0000 0.94950  0.10800  0.12520  Biso   1.000  H
  H188     1.0000 0.92810  0.13630  0.17300  Biso   1.000  H
  C188     1.0000 0.97160  0.07470  0.19180  Biso   1.000  C
  O95      1.0000 0.44757  0.68323  0.25673  Biso   1.000  O
  C189     1.0000 0.45780  0.61970  0.15900  Biso   1.000  C
  H189     1.0000 0.44950  0.60800  0.12520  Biso   1.000  H
  H190     1.0000 0.42810  0.63630  0.17300  Biso   1.000  H
  C190     1.0000 0.47160  0.57470  0.19180  Biso   1.000  C
  O96      1.0000 0.44757  0.18323  0.75673  Biso   1.000  O
  C191     1.0000 0.45780  0.11970  0.65900  Biso   1.000  C
  H191     1.0000 0.44950  0.10800  0.62520  Biso   1.000  H
  H192     1.0000 0.42810  0.13630  0.67300  Biso   1.000  H
  C192     1.0000 0.47160  0.07470  0.69180  Biso   1.000  C
  O97      1.0000 0.75673  0.68323  0.94757  Biso   1.000  O
  C193     1.0000 0.65900  0.61970  0.95780  Biso   1.000  C
  H193     1.0000 0.62520  0.60800  0.94950  Biso   1.000  H
  H194     1.0000 0.67300  0.63630  0.92810  Biso   1.000  H
  C194     1.0000 0.69180  0.57470  0.97160  Biso   1.000  C
  O98      1.0000 0.75673  0.18323  0.44757  Biso   1.000  O
  C195     1.0000 0.65900  0.11970  0.45780  Biso   1.000  C
  H195     1.0000 0.62520  0.10800  0.44950  Biso   1.000  H
  H196     1.0000 0.67300  0.13630  0.42810  Biso   1.000  H
  C196     1.0000 0.69180  0.07470  0.47160  Biso   1.000  C
  O99      1.0000 0.25673  0.68323  0.44757  Biso   1.000  O
  C197     1.0000 0.15900  0.61970  0.45780  Biso   1.000  C
  H197     1.0000 0.12520  0.60800  0.44950  Biso   1.000  H
  H198     1.0000 0.17300  0.63630  0.42810  Biso   1.000  H
  C198     1.0000 0.19180  0.57470  0.47160  Biso   1.000  C
  O100     1.0000 0.25673  0.18323  0.94757  Biso   1.000  O
  C199     1.0000 0.15900  0.11970  0.95780  Biso   1.000  C
  H199     1.0000 0.12520  0.10800  0.94950  Biso   1.000  H
  H200     1.0000 0.17300  0.13630  0.92810  Biso   1.000  H
  C200     1.0000 0.19180  0.07470  0.97160  Biso   1.000  C
  O101     1.0000 0.24327  0.31677  0.94757  Biso   1.000  O
  C201     1.0000 0.34100  0.38030  0.95780  Biso   1.000  C
  H201     1.0000 0.37480  0.39200  0.94950  Biso   1.000  H
  H202     1.0000 0.32700  0.36370  0.92810  Biso   1.000  H
  C202     1.0000 0.30820  0.42530  0.97160  Biso   1.000  C
  O102     1.0000 0.24327  0.81677  0.44757  Biso   1.000  O
  C203     1.0000 0.34100  0.88030  0.45780  Biso   1.000  C
  H203     1.0000 0.37480  0.89200  0.44950  Biso   1.000  H
  H204     1.0000 0.32700  0.86370  0.42810  Biso   1.000  H
  C204     1.0000 0.30820  0.92530  0.47160  Biso   1.000  C
  O103     1.0000 0.74327  0.31677  0.44757  Biso   1.000  O
  C205     1.0000 0.84100  0.38030  0.45780  Biso   1.000  C
  H205     1.0000 0.87480  0.39200  0.44950  Biso   1.000  H
  H206     1.0000 0.82700  0.36370  0.42810  Biso   1.000  H
  C206     1.0000 0.80820  0.42530  0.47160  Biso   1.000  C
  O104     1.0000 0.74327  0.81677  0.94757  Biso   1.000  O
  C207     1.0000 0.84100  0.88030  0.95780  Biso   1.000  C
  H207     1.0000 0.87480  0.89200  0.94950  Biso   1.000  H
  H208     1.0000 0.82700  0.86370  0.92810  Biso   1.000  H
  C208     1.0000 0.80820  0.92530  0.97160  Biso   1.000  C
  O105     1.0000 0.24327  0.68323  0.05243  Biso   1.000  O
  C209     1.0000 0.34100  0.61970  0.04220  Biso   1.000  C
  H209     1.0000 0.37480  0.60800  0.05050  Biso   1.000  H
  H210     1.0000 0.32700  0.63630  0.07190  Biso   1.000  H
  C210     1.0000 0.30820  0.57470  0.02840  Biso   1.000  C
  O106     1.0000 0.24327  0.18323  0.55243  Biso   1.000  O
  C211     1.0000 0.34100  0.11970  0.54220  Biso   1.000  C
  H211     1.0000 0.37480  0.10800  0.55050  Biso   1.000  H
  H212     1.0000 0.32700  0.13630  0.57190  Biso   1.000  H
  C212     1.0000 0.30820  0.07470  0.52840  Biso   1.000  C
  O107     1.0000 0.74327  0.68323  0.55243  Biso   1.000  O
  C213     1.0000 0.84100  0.61970  0.54220  Biso   1.000  C
  H213     1.0000 0.87480  0.60800  0.55050  Biso   1.000  H
  H214     1.0000 0.82700  0.63630  0.57190  Biso   1.000  H
  C214     1.0000 0.80820  0.57470  0.52840  Biso   1.000  C
  O108     1.0000 0.74327  0.18323  0.05243  Biso   1.000  O
  C215     1.0000 0.84100  0.11970  0.04220  Biso   1.000  C
  H215     1.0000 0.87480  0.10800  0.05050  Biso   1.000  H
  H216     1.0000 0.82700  0.13630  0.07190  Biso   1.000  H
  C216     1.0000 0.80820  0.07470  0.02840  Biso   1.000  C
  O109     1.0000 0.75673  0.31677  0.05243  Biso   1.000  O
  C217     1.0000 0.65900  0.38030  0.04220  Biso   1.000  C
  H217     1.0000 0.62520  0.39200  0.05050  Biso   1.000  H
  H218     1.0000 0.67300  0.36370  0.07190  Biso   1.000  H
  C218     1.0000 0.69180  0.42530  0.02840  Biso   1.000  C
  O110     1.0000 0.75673  0.81677  0.55243  Biso   1.000  O
  C219     1.0000 0.65900  0.88030  0.54220  Biso   1.000  C
  H219     1.0000 0.62520  0.89200  0.55050  Biso   1.000  H
  H220     1.0000 0.67300  0.86370  0.57190  Biso   1.000  H
  C220     1.0000 0.69180  0.92530  0.52840  Biso   1.000  C
  O111     1.0000 0.25673  0.31677  0.55243  Biso   1.000  O
  C221     1.0000 0.15900  0.38030  0.54220  Biso   1.000  C
  H221     1.0000 0.12520  0.39200  0.55050  Biso   1.000  H
  H222     1.0000 0.17300  0.36370  0.57190  Biso   1.000  H
  C222     1.0000 0.19180  0.42530  0.52840  Biso   1.000  C
  O112     1.0000 0.25673  0.81677  0.05243  Biso   1.000  O
  C223     1.0000 0.15900  0.88030  0.04220  Biso   1.000  C
  H223     1.0000 0.12520  0.89200  0.05050  Biso   1.000  H
  H224     1.0000 0.17300  0.86370  0.07190  Biso   1.000  H
  C224     1.0000 0.19180  0.92530  0.02840  Biso   1.000  C
  O113     1.0000 0.94757  0.75673  0.68323  Biso   1.000  O
  C225     1.0000 0.95780  0.65900  0.61970  Biso   1.000  C
  H225     1.0000 0.94950  0.62520  0.60800  Biso   1.000  H
  H226     1.0000 0.92810  0.67300  0.63630  Biso   1.000  H
  C226     1.0000 0.97160  0.69180  0.57470  Biso   1.000  C
  O114     1.0000 0.94757  0.25673  0.18323  Biso   1.000  O
  C227     1.0000 0.95780  0.15900  0.11970  Biso   1.000  C
  H227     1.0000 0.94950  0.12520  0.10800  Biso   1.000  H
  H228     1.0000 0.92810  0.17300  0.13630  Biso   1.000  H
  C228     1.0000 0.97160  0.19180  0.07470  Biso   1.000  C
  O115     1.0000 0.44757  0.75673  0.18323  Biso   1.000  O
  C229     1.0000 0.45780  0.65900  0.11970  Biso   1.000  C
  H229     1.0000 0.44950  0.62520  0.10800  Biso   1.000  H
  H230     1.0000 0.42810  0.67300  0.13630  Biso   1.000  H
  C230     1.0000 0.47160  0.69180  0.07470  Biso   1.000  C
  O116     1.0000 0.44757  0.25673  0.68323  Biso   1.000  O
  C231     1.0000 0.45780  0.15900  0.61970  Biso   1.000  C
  H231     1.0000 0.44950  0.12520  0.60800  Biso   1.000  H
  H232     1.0000 0.42810  0.17300  0.63630  Biso   1.000  H
  C232     1.0000 0.47160  0.19180  0.57470  Biso   1.000  C
  O117     1.0000 0.94757  0.24327  0.31677  Biso   1.000  O
  C233     1.0000 0.95780  0.34100  0.38030  Biso   1.000  C
  H233     1.0000 0.94950  0.37480  0.39200  Biso   1.000  H
  H234     1.0000 0.92810  0.32700  0.36370  Biso   1.000  H
  C234     1.0000 0.97160  0.30820  0.42530  Biso   1.000  C
  O118     1.0000 0.94757  0.74327  0.81677  Biso   1.000  O
  C235     1.0000 0.95780  0.84100  0.88030  Biso   1.000  C
  H235     1.0000 0.94950  0.87480  0.89200  Biso   1.000  H
  H236     1.0000 0.92810  0.82700  0.86370  Biso   1.000  H
  C236     1.0000 0.97160  0.80820  0.92530  Biso   1.000  C
  O119     1.0000 0.44757  0.24327  0.81677  Biso   1.000  O
  C237     1.0000 0.45780  0.34100  0.88030  Biso   1.000  C
  H237     1.0000 0.44950  0.37480  0.89200  Biso   1.000  H
  H238     1.0000 0.42810  0.32700  0.86370  Biso   1.000  H
  C238     1.0000 0.47160  0.30820  0.92530  Biso   1.000  C
  O120     1.0000 0.44757  0.74327  0.31677  Biso   1.000  O
  C239     1.0000 0.45780  0.84100  0.38030  Biso   1.000  C
  H239     1.0000 0.44950  0.87480  0.39200  Biso   1.000  H
  H240     1.0000 0.42810  0.82700  0.36370  Biso   1.000  H
  C240     1.0000 0.47160  0.80820  0.42530  Biso   1.000  C
  O121     1.0000 0.05243  0.24327  0.68323  Biso   1.000  O
  C241     1.0000 0.04220  0.34100  0.61970  Biso   1.000  C
  H241     1.0000 0.05050  0.37480  0.60800  Biso   1.000  H
  H242     1.0000 0.07190  0.32700  0.63630  Biso   1.000  H
  C242     1.0000 0.02840  0.30820  0.57470  Biso   1.000  C
  O122     1.0000 0.05243  0.74327  0.18323  Biso   1.000  O
  C243     1.0000 0.04220  0.84100  0.11970  Biso   1.000  C
  H243     1.0000 0.05050  0.87480  0.10800  Biso   1.000  H
  H244     1.0000 0.07190  0.82700  0.13630  Biso   1.000  H
  C244     1.0000 0.02840  0.80820  0.07470  Biso   1.000  C
  O123     1.0000 0.55243  0.24327  0.18323  Biso   1.000  O
  C245     1.0000 0.54220  0.34100  0.11970  Biso   1.000  C
  H245     1.0000 0.55050  0.37480  0.10800  Biso   1.000  H
  H246     1.0000 0.57190  0.32700  0.13630  Biso   1.000  H
  C246     1.0000 0.52840  0.30820  0.07470  Biso   1.000  C
  O124     1.0000 0.55243  0.74327  0.68323  Biso   1.000  O
  C247     1.0000 0.54220  0.84100  0.61970  Biso   1.000  C
  H247     1.0000 0.55050  0.87480  0.60800  Biso   1.000  H
  H248     1.0000 0.57190  0.82700  0.63630  Biso   1.000  H
  C248     1.0000 0.52840  0.80820  0.57470  Biso   1.000  C
  O125     1.0000 0.05243  0.75673  0.31677  Biso   1.000  O
  C249     1.0000 0.04220  0.65900  0.38030  Biso   1.000  C
  H249     1.0000 0.05050  0.62520  0.39200  Biso   1.000  H
  H250     1.0000 0.07190  0.67300  0.36370  Biso   1.000  H
  C250     1.0000 0.02840  0.69180  0.42530  Biso   1.000  C
  O126     1.0000 0.05243  0.25673  0.81677  Biso   1.000  O
  C251     1.0000 0.04220  0.15900  0.88030  Biso   1.000  C
  H251     1.0000 0.05050  0.12520  0.89200  Biso   1.000  H
  H252     1.0000 0.07190  0.17300  0.86370  Biso   1.000  H
  C252     1.0000 0.02840  0.19180  0.92530  Biso   1.000  C
  O127     1.0000 0.55243  0.75673  0.81677  Biso   1.000  O
  C253     1.0000 0.54220  0.65900  0.88030  Biso   1.000  C
  H253     1.0000 0.55050  0.62520  0.89200  Biso   1.000  H
  H254     1.0000 0.57190  0.67300  0.86370  Biso   1.000  H
  C254     1.0000 0.52840  0.69180  0.92530  Biso   1.000  C
  O128     1.0000 0.55243  0.25673  0.31677  Biso   1.000  O
  C255     1.0000 0.54220  0.15900  0.38030  Biso   1.000  C
  H255     1.0000 0.55050  0.12520  0.39200  Biso   1.000  H
  H256     1.0000 0.57190  0.17300  0.36370  Biso   1.000  H
  C256     1.0000 0.52840  0.19180  0.42530  Biso   1.000  C
  O129     1.0000 0.68323  0.94757  0.75673  Biso   1.000  O
  C257     1.0000 0.61970  0.95780  0.65900  Biso   1.000  C
  H257     1.0000 0.60800  0.94950  0.62520  Biso   1.000  H
  H258     1.0000 0.63630  0.92810  0.67300  Biso   1.000  H
  C258     1.0000 0.57470  0.97160  0.69180  Biso   1.000  C
  O130     1.0000 0.68323  0.44757  0.25673  Biso   1.000  O
  C259     1.0000 0.61970  0.45780  0.15900  Biso   1.000  C
  H259     1.0000 0.60800  0.44950  0.12520  Biso   1.000  H
  H260     1.0000 0.63630  0.42810  0.17300  Biso   1.000  H
  C260     1.0000 0.57470  0.47160  0.19180  Biso   1.000  C
  O131     1.0000 0.18323  0.94757  0.25673  Biso   1.000  O
  C261     1.0000 0.11970  0.95780  0.15900  Biso   1.000  C
  H261     1.0000 0.10800  0.94950  0.12520  Biso   1.000  H
  H262     1.0000 0.13630  0.92810  0.17300  Biso   1.000  H
  C262     1.0000 0.07470  0.97160  0.19180  Biso   1.000  C
  O132     1.0000 0.18323  0.44757  0.75673  Biso   1.000  O
  C263     1.0000 0.11970  0.45780  0.65900  Biso   1.000  C
  H263     1.0000 0.10800  0.44950  0.62520  Biso   1.000  H
  H264     1.0000 0.13630  0.42810  0.67300  Biso   1.000  H
  C264     1.0000 0.07470  0.47160  0.69180  Biso   1.000  C
  O133     1.0000 0.31677  0.94757  0.24327  Biso   1.000  O
  C265     1.0000 0.38030  0.95780  0.34100  Biso   1.000  C
  H265     1.0000 0.39200  0.94950  0.37480  Biso   1.000  H
  H266     1.0000 0.36370  0.92810  0.32700  Biso   1.000  H
  C266     1.0000 0.42530  0.97160  0.30820  Biso   1.000  C
  O134     1.0000 0.31677  0.44757  0.74327  Biso   1.000  O
  C267     1.0000 0.38030  0.45780  0.84100  Biso   1.000  C
  H267     1.0000 0.39200  0.44950  0.87480  Biso   1.000  H
  H268     1.0000 0.36370  0.42810  0.82700  Biso   1.000  H
  C268     1.0000 0.42530  0.47160  0.80820  Biso   1.000  C
  O135     1.0000 0.81677  0.94757  0.74327  Biso   1.000  O
  C269     1.0000 0.88030  0.95780  0.84100  Biso   1.000  C
  H269     1.0000 0.89200  0.94950  0.87480  Biso   1.000  H
  H270     1.0000 0.86370  0.92810  0.82700  Biso   1.000  H
  C270     1.0000 0.92530  0.97160  0.80820  Biso   1.000  C
  O136     1.0000 0.81677  0.44757  0.24327  Biso   1.000  O
  C271     1.0000 0.88030  0.45780  0.34100  Biso   1.000  C
  H271     1.0000 0.89200  0.44950  0.37480  Biso   1.000  H
  H272     1.0000 0.86370  0.42810  0.32700  Biso   1.000  H
  C272     1.0000 0.92530  0.47160  0.30820  Biso   1.000  C
  O137     1.0000 0.68323  0.05243  0.24327  Biso   1.000  O
  C273     1.0000 0.61970  0.04220  0.34100  Biso   1.000  C
  H273     1.0000 0.60800  0.05050  0.37480  Biso   1.000  H
  H274     1.0000 0.63630  0.07190  0.32700  Biso   1.000  H
  C274     1.0000 0.57470  0.02840  0.30820  Biso   1.000  C
  O138     1.0000 0.68323  0.55243  0.74327  Biso   1.000  O
  C275     1.0000 0.61970  0.54220  0.84100  Biso   1.000  C
  H275     1.0000 0.60800  0.55050  0.87480  Biso   1.000  H
  H276     1.0000 0.63630  0.57190  0.82700  Biso   1.000  H
  C276     1.0000 0.57470  0.52840  0.80820  Biso   1.000  C
  O139     1.0000 0.18323  0.05243  0.74327  Biso   1.000  O
  C277     1.0000 0.11970  0.04220  0.84100  Biso   1.000  C
  H277     1.0000 0.10800  0.05050  0.87480  Biso   1.000  H
  H278     1.0000 0.13630  0.07190  0.82700  Biso   1.000  H
  C278     1.0000 0.07470  0.02840  0.80820  Biso   1.000  C
  O140     1.0000 0.18323  0.55243  0.24327  Biso   1.000  O
  C279     1.0000 0.11970  0.54220  0.34100  Biso   1.000  C
  H279     1.0000 0.10800  0.55050  0.37480  Biso   1.000  H
  H280     1.0000 0.13630  0.57190  0.32700  Biso   1.000  H
  C280     1.0000 0.07470  0.52840  0.30820  Biso   1.000  C
  O141     1.0000 0.31677  0.05243  0.75673  Biso   1.000  O
  C281     1.0000 0.38030  0.04220  0.65900  Biso   1.000  C
  H281     1.0000 0.39200  0.05050  0.62520  Biso   1.000  H
  H282     1.0000 0.36370  0.07190  0.67300  Biso   1.000  H
  C282     1.0000 0.42530  0.02840  0.69180  Biso   1.000  C
  O142     1.0000 0.31677  0.55243  0.25673  Biso   1.000  O
  C283     1.0000 0.38030  0.54220  0.15900  Biso   1.000  C
  H283     1.0000 0.39200  0.55050  0.12520  Biso   1.000  H
  H284     1.0000 0.36370  0.57190  0.17300  Biso   1.000  H
  C284     1.0000 0.42530  0.52840  0.19180  Biso   1.000  C
  O143     1.0000 0.81677  0.05243  0.25673  Biso   1.000  O
  C285     1.0000 0.88030  0.04220  0.15900  Biso   1.000  C
  H285     1.0000 0.89200  0.05050  0.12520  Biso   1.000  H
  H286     1.0000 0.86370  0.07190  0.17300  Biso   1.000  H
  C286     1.0000 0.92530  0.02840  0.19180  Biso   1.000  C
  O144     1.0000 0.81677  0.55243  0.75673  Biso   1.000  O
  C287     1.0000 0.88030  0.54220  0.65900  Biso   1.000  C
  H287     1.0000 0.89200  0.55050  0.62520  Biso   1.000  H
  H288     1.0000 0.86370  0.57190  0.67300  Biso   1.000  H
  C288     1.0000 0.92530  0.52840  0.69180  Biso   1.000  C
  O145     1.0000 0.68323  0.75673  0.05243  Biso   1.000  O
  C289     1.0000 0.61970  0.65900  0.04220  Biso   1.000  C
  H289     1.0000 0.60800  0.62520  0.05050  Biso   1.000  H
  H290     1.0000 0.63630  0.67300  0.07190  Biso   1.000  H
  C290     1.0000 0.57470  0.69180  0.02840  Biso   1.000  C
  O146     1.0000 0.68323  0.25673  0.55243  Biso   1.000  O
  C291     1.0000 0.61970  0.15900  0.54220  Biso   1.000  C
  H291     1.0000 0.60800  0.12520  0.55050  Biso   1.000  H
  H292     1.0000 0.63630  0.17300  0.57190  Biso   1.000  H
  C292     1.0000 0.57470  0.19180  0.52840  Biso   1.000  C
  O147     1.0000 0.18323  0.75673  0.55243  Biso   1.000  O
  C293     1.0000 0.11970  0.65900  0.54220  Biso   1.000  C
  H293     1.0000 0.10800  0.62520  0.55050  Biso   1.000  H
  H294     1.0000 0.13630  0.67300  0.57190  Biso   1.000  H
  C294     1.0000 0.07470  0.69180  0.52840  Biso   1.000  C
  O148     1.0000 0.18323  0.25673  0.05243  Biso   1.000  O
  C295     1.0000 0.11970  0.15900  0.04220  Biso   1.000  C
  H295     1.0000 0.10800  0.12520  0.05050  Biso   1.000  H
  H296     1.0000 0.13630  0.17300  0.07190  Biso   1.000  H
  C296     1.0000 0.07470  0.19180  0.02840  Biso   1.000  C
  O149     1.0000 0.31677  0.24327  0.05243  Biso   1.000  O
  C297     1.0000 0.38030  0.34100  0.04220  Biso   1.000  C
  H297     1.0000 0.39200  0.37480  0.05050  Biso   1.000  H
  H298     1.0000 0.36370  0.32700  0.07190  Biso   1.000  H
  C298     1.0000 0.42530  0.30820  0.02840  Biso   1.000  C
  O150     1.0000 0.31677  0.74327  0.55243  Biso   1.000  O
  C299     1.0000 0.38030  0.84100  0.54220  Biso   1.000  C
  H299     1.0000 0.39200  0.87480  0.55050  Biso   1.000  H
  H300     1.0000 0.36370  0.82700  0.57190  Biso   1.000  H
  C300     1.0000 0.42530  0.80820  0.52840  Biso   1.000  C
  O151     1.0000 0.81677  0.24327  0.55243  Biso   1.000  O
  C301     1.0000 0.88030  0.34100  0.54220  Biso   1.000  C
  H301     1.0000 0.89200  0.37480  0.55050  Biso   1.000  H
  H302     1.0000 0.86370  0.32700  0.57190  Biso   1.000  H
  C302     1.0000 0.92530  0.30820  0.52840  Biso   1.000  C
  O152     1.0000 0.81677  0.74327  0.05243  Biso   1.000  O
  C303     1.0000 0.88030  0.84100  0.04220  Biso   1.000  C
  H303     1.0000 0.89200  0.87480  0.05050  Biso   1.000  H
  H304     1.0000 0.86370  0.82700  0.07190  Biso   1.000  H
  C304     1.0000 0.92530  0.80820  0.02840  Biso   1.000  C
  O153     1.0000 0.68323  0.24327  0.94757  Biso   1.000  O
  C305     1.0000 0.61970  0.34100  0.95780  Biso   1.000  C
  H305     1.0000 0.60800  0.37480  0.94950  Biso   1.000  H
  H306     1.0000 0.63630  0.32700  0.92810  Biso   1.000  H
  C306     1.0000 0.57470  0.30820  0.97160  Biso   1.000  C
  O154     1.0000 0.68323  0.74327  0.44757  Biso   1.000  O
  C307     1.0000 0.61970  0.84100  0.45780  Biso   1.000  C
  H307     1.0000 0.60800  0.87480  0.44950  Biso   1.000  H
  H308     1.0000 0.63630  0.82700  0.42810  Biso   1.000  H
  C308     1.0000 0.57470  0.80820  0.47160  Biso   1.000  C
  O155     1.0000 0.18323  0.24327  0.44757  Biso   1.000  O
  C309     1.0000 0.11970  0.34100  0.45780  Biso   1.000  C
  H309     1.0000 0.10800  0.37480  0.44950  Biso   1.000  H
  H310     1.0000 0.13630  0.32700  0.42810  Biso   1.000  H
  C310     1.0000 0.07470  0.30820  0.47160  Biso   1.000  C
  O156     1.0000 0.18323  0.74327  0.94757  Biso   1.000  O
  C311     1.0000 0.11970  0.84100  0.95780  Biso   1.000  C
  H311     1.0000 0.10800  0.87480  0.94950  Biso   1.000  H
  H312     1.0000 0.13630  0.82700  0.92810  Biso   1.000  H
  C312     1.0000 0.07470  0.80820  0.97160  Biso   1.000  C
  O157     1.0000 0.31677  0.75673  0.94757  Biso   1.000  O
  C313     1.0000 0.38030  0.65900  0.95780  Biso   1.000  C
  H313     1.0000 0.39200  0.62520  0.94950  Biso   1.000  H
  H314     1.0000 0.36370  0.67300  0.92810  Biso   1.000  H
  C314     1.0000 0.42530  0.69180  0.97160  Biso   1.000  C
  O158     1.0000 0.31677  0.25673  0.44757  Biso   1.000  O
  C315     1.0000 0.38030  0.15900  0.45780  Biso   1.000  C
  H315     1.0000 0.39200  0.12520  0.44950  Biso   1.000  H
  H316     1.0000 0.36370  0.17300  0.42810  Biso   1.000  H
  C316     1.0000 0.42530  0.19180  0.47160  Biso   1.000  C
  O159     1.0000 0.81677  0.75673  0.44757  Biso   1.000  O
  C317     1.0000 0.88030  0.65900  0.45780  Biso   1.000  C
  H317     1.0000 0.89200  0.62520  0.44950  Biso   1.000  H
  H318     1.0000 0.86370  0.67300  0.42810  Biso   1.000  H
  C318     1.0000 0.92530  0.69180  0.47160  Biso   1.000  C
  O160     1.0000 0.81677  0.25673  0.94757  Biso   1.000  O
  C319     1.0000 0.88030  0.15900  0.95780  Biso   1.000  C
  H319     1.0000 0.89200  0.12520  0.94950  Biso   1.000  H
  H320     1.0000 0.86370  0.17300  0.92810  Biso   1.000  H
  C320     1.0000 0.92530  0.19180  0.97160  Biso   1.000  C
  O161     1.0000 0.75673  0.94757  0.31677  Biso   1.000  O
  C321     1.0000 0.65900  0.95780  0.38030  Biso   1.000  C
  H321     1.0000 0.62520  0.94950  0.39200  Biso   1.000  H
  H322     1.0000 0.67300  0.92810  0.36370  Biso   1.000  H
  C322     1.0000 0.69180  0.97160  0.42530  Biso   1.000  C
  O162     1.0000 0.75673  0.44757  0.81677  Biso   1.000  O
  C323     1.0000 0.65900  0.45780  0.88030  Biso   1.000  C
  H323     1.0000 0.62520  0.44950  0.89200  Biso   1.000  H
  H324     1.0000 0.67300  0.42810  0.86370  Biso   1.000  H
  C324     1.0000 0.69180  0.47160  0.92530  Biso   1.000  C
  O163     1.0000 0.25673  0.94757  0.81677  Biso   1.000  O
  C325     1.0000 0.15900  0.95780  0.88030  Biso   1.000  C
  H325     1.0000 0.12520  0.94950  0.89200  Biso   1.000  H
  H326     1.0000 0.17300  0.92810  0.86370  Biso   1.000  H
  C326     1.0000 0.19180  0.97160  0.92530  Biso   1.000  C
  O164     1.0000 0.25673  0.44757  0.31677  Biso   1.000  O
  C327     1.0000 0.15900  0.45780  0.38030  Biso   1.000  C
  H327     1.0000 0.12520  0.44950  0.39200  Biso   1.000  H
  H328     1.0000 0.17300  0.42810  0.36370  Biso   1.000  H
  C328     1.0000 0.19180  0.47160  0.42530  Biso   1.000  C
  O165     1.0000 0.24327  0.94757  0.68323  Biso   1.000  O
  C329     1.0000 0.34100  0.95780  0.61970  Biso   1.000  C
  H329     1.0000 0.37480  0.94950  0.60800  Biso   1.000  H
  H330     1.0000 0.32700  0.92810  0.63630  Biso   1.000  H
  C330     1.0000 0.30820  0.97160  0.57470  Biso   1.000  C
  O166     1.0000 0.24327  0.44757  0.18323  Biso   1.000  O
  C331     1.0000 0.34100  0.45780  0.11970  Biso   1.000  C
  H331     1.0000 0.37480  0.44950  0.10800  Biso   1.000  H
  H332     1.0000 0.32700  0.42810  0.13630  Biso   1.000  H
  C332     1.0000 0.30820  0.47160  0.07470  Biso   1.000  C
  O167     1.0000 0.74327  0.94757  0.18323  Biso   1.000  O
  C333     1.0000 0.84100  0.95780  0.11970  Biso   1.000  C
  H333     1.0000 0.87480  0.94950  0.10800  Biso   1.000  H
  H334     1.0000 0.82700  0.92810  0.13630  Biso   1.000  H
  C334     1.0000 0.80820  0.97160  0.07470  Biso   1.000  C
  O168     1.0000 0.74327  0.44757  0.68323  Biso   1.000  O
  C335     1.0000 0.84100  0.45780  0.61970  Biso   1.000  C
  H335     1.0000 0.87480  0.44950  0.60800  Biso   1.000  H
  H336     1.0000 0.82700  0.42810  0.63630  Biso   1.000  H
  C336     1.0000 0.80820  0.47160  0.57470  Biso   1.000  C
  O169     1.0000 0.24327  0.05243  0.31677  Biso   1.000  O
  C337     1.0000 0.34100  0.04220  0.38030  Biso   1.000  C
  H337     1.0000 0.37480  0.05050  0.39200  Biso   1.000  H
  H338     1.0000 0.32700  0.07190  0.36370  Biso   1.000  H
  C338     1.0000 0.30820  0.02840  0.42530  Biso   1.000  C
  O170     1.0000 0.24327  0.55243  0.81677  Biso   1.000  O
  C339     1.0000 0.34100  0.54220  0.88030  Biso   1.000  C
  H339     1.0000 0.37480  0.55050  0.89200  Biso   1.000  H
  H340     1.0000 0.32700  0.57190  0.86370  Biso   1.000  H
  C340     1.0000 0.30820  0.52840  0.92530  Biso   1.000  C
  O171     1.0000 0.74327  0.05243  0.81677  Biso   1.000  O
  C341     1.0000 0.84100  0.04220  0.88030  Biso   1.000  C
  H341     1.0000 0.87480  0.05050  0.89200  Biso   1.000  H
  H342     1.0000 0.82700  0.07190  0.86370  Biso   1.000  H
  C342     1.0000 0.80820  0.02840  0.92530  Biso   1.000  C
  O172     1.0000 0.74327  0.55243  0.31677  Biso   1.000  O
  C343     1.0000 0.84100  0.54220  0.38030  Biso   1.000  C
  H343     1.0000 0.87480  0.55050  0.39200  Biso   1.000  H
  H344     1.0000 0.82700  0.57190  0.36370  Biso   1.000  H
  C344     1.0000 0.80820  0.52840  0.42530  Biso   1.000  C
  O173     1.0000 0.75673  0.05243  0.68323  Biso   1.000  O
  C345     1.0000 0.65900  0.04220  0.61970  Biso   1.000  C
  H345     1.0000 0.62520  0.05050  0.60800  Biso   1.000  H
  H346     1.0000 0.67300  0.07190  0.63630  Biso   1.000  H
  C346     1.0000 0.69180  0.02840  0.57470  Biso   1.000  C
  O174     1.0000 0.75673  0.55243  0.18323  Biso   1.000  O
  C347     1.0000 0.65900  0.54220  0.11970  Biso   1.000  C
  H347     1.0000 0.62520  0.55050  0.10800  Biso   1.000  H
  H348     1.0000 0.67300  0.57190  0.13630  Biso   1.000  H
  C348     1.0000 0.69180  0.52840  0.07470  Biso   1.000  C
  O175     1.0000 0.25673  0.05243  0.18323  Biso   1.000  O
  C349     1.0000 0.15900  0.04220  0.11970  Biso   1.000  C
  H349     1.0000 0.12520  0.05050  0.10800  Biso   1.000  H
  H350     1.0000 0.17300  0.07190  0.13630  Biso   1.000  H
  C350     1.0000 0.19180  0.02840  0.07470  Biso   1.000  C
  O176     1.0000 0.25673  0.55243  0.68323  Biso   1.000  O
  C351     1.0000 0.15900  0.54220  0.61970  Biso   1.000  C
  H351     1.0000 0.12520  0.55050  0.60800  Biso   1.000  H
  H352     1.0000 0.17300  0.57190  0.63630  Biso   1.000  H
  C352     1.0000 0.19180  0.52840  0.57470  Biso   1.000  C
  O177     1.0000 0.94757  0.68323  0.24327  Biso   1.000  O
  C353     1.0000 0.95780  0.61970  0.34100  Biso   1.000  C
  H353     1.0000 0.94950  0.60800  0.37480  Biso   1.000  H
  H354     1.0000 0.92810  0.63630  0.32700  Biso   1.000  H
  C354     1.0000 0.97160  0.57470  0.30820  Biso   1.000  C
  O178     1.0000 0.94757  0.18323  0.74327  Biso   1.000  O
  C355     1.0000 0.95780  0.11970  0.84100  Biso   1.000  C
  H355     1.0000 0.94950  0.10800  0.87480  Biso   1.000  H
  H356     1.0000 0.92810  0.13630  0.82700  Biso   1.000  H
  C356     1.0000 0.97160  0.07470  0.80820  Biso   1.000  C
  O179     1.0000 0.44757  0.68323  0.74327  Biso   1.000  O
  C357     1.0000 0.45780  0.61970  0.84100  Biso   1.000  C
  H357     1.0000 0.44950  0.60800  0.87480  Biso   1.000  H
  H358     1.0000 0.42810  0.63630  0.82700  Biso   1.000  H
  C358     1.0000 0.47160  0.57470  0.80820  Biso   1.000  C
  O180     1.0000 0.44757  0.18323  0.24327  Biso   1.000  O
  C359     1.0000 0.45780  0.11970  0.34100  Biso   1.000  C
  H359     1.0000 0.44950  0.10800  0.37480  Biso   1.000  H
  H360     1.0000 0.42810  0.13630  0.32700  Biso   1.000  H
  C360     1.0000 0.47160  0.07470  0.30820  Biso   1.000  C
  O181     1.0000 0.94757  0.31677  0.75673  Biso   1.000  O
  C361     1.0000 0.95780  0.38030  0.65900  Biso   1.000  C
  H361     1.0000 0.94950  0.39200  0.62520  Biso   1.000  H
  H362     1.0000 0.92810  0.36370  0.67300  Biso   1.000  H
  C362     1.0000 0.97160  0.42530  0.69180  Biso   1.000  C
  O182     1.0000 0.94757  0.81677  0.25673  Biso   1.000  O
  C363     1.0000 0.95780  0.88030  0.15900  Biso   1.000  C
  H363     1.0000 0.94950  0.89200  0.12520  Biso   1.000  H
  H364     1.0000 0.92810  0.86370  0.17300  Biso   1.000  H
  C364     1.0000 0.97160  0.92530  0.19180  Biso   1.000  C
  O183     1.0000 0.44757  0.31677  0.25673  Biso   1.000  O
  C365     1.0000 0.45780  0.38030  0.15900  Biso   1.000  C
  H365     1.0000 0.44950  0.39200  0.12520  Biso   1.000  H
  H366     1.0000 0.42810  0.36370  0.17300  Biso   1.000  H
  C366     1.0000 0.47160  0.42530  0.19180  Biso   1.000  C
  O184     1.0000 0.44757  0.81677  0.75673  Biso   1.000  O
  C367     1.0000 0.45780  0.88030  0.65900  Biso   1.000  C
  H367     1.0000 0.44950  0.89200  0.62520  Biso   1.000  H
  H368     1.0000 0.42810  0.86370  0.67300  Biso   1.000  H
  C368     1.0000 0.47160  0.92530  0.69180  Biso   1.000  C
  O185     1.0000 0.05243  0.68323  0.75673  Biso   1.000  O
  C369     1.0000 0.04220  0.61970  0.65900  Biso   1.000  C
  H369     1.0000 0.05050  0.60800  0.62520  Biso   1.000  H
  H370     1.0000 0.07190  0.63630  0.67300  Biso   1.000  H
  C370     1.0000 0.02840  0.57470  0.69180  Biso   1.000  C
  O186     1.0000 0.05243  0.18323  0.25673  Biso   1.000  O
  C371     1.0000 0.04220  0.11970  0.15900  Biso   1.000  C
  H371     1.0000 0.05050  0.10800  0.12520  Biso   1.000  H
  H372     1.0000 0.07190  0.13630  0.17300  Biso   1.000  H
  C372     1.0000 0.02840  0.07470  0.19180  Biso   1.000  C
  O187     1.0000 0.55243  0.68323  0.25673  Biso   1.000  O
  C373     1.0000 0.54220  0.61970  0.15900  Biso   1.000  C
  H373     1.0000 0.55050  0.60800  0.12520  Biso   1.000  H
  H374     1.0000 0.57190  0.63630  0.17300  Biso   1.000  H
  C374     1.0000 0.52840  0.57470  0.19180  Biso   1.000  C
  O188     1.0000 0.55243  0.18323  0.75673  Biso   1.000  O
  C375     1.0000 0.54220  0.11970  0.65900  Biso   1.000  C
  H375     1.0000 0.55050  0.10800  0.62520  Biso   1.000  H
  H376     1.0000 0.57190  0.13630  0.67300  Biso   1.000  H
  C376     1.0000 0.52840  0.07470  0.69180  Biso   1.000  C
  O189     1.0000 0.05243  0.31677  0.24327  Biso   1.000  O
  C377     1.0000 0.04220  0.38030  0.34100  Biso   1.000  C
  H377     1.0000 0.05050  0.39200  0.37480  Biso   1.000  H
  H378     1.0000 0.07190  0.36370  0.32700  Biso   1.000  H
  C378     1.0000 0.02840  0.42530  0.30820  Biso   1.000  C
  O190     1.0000 0.05243  0.81677  0.74327  Biso   1.000  O
  C379     1.0000 0.04220  0.88030  0.84100  Biso   1.000  C
  H379     1.0000 0.05050  0.89200  0.87480  Biso   1.000  H
  H380     1.0000 0.07190  0.86370  0.82700  Biso   1.000  H
  C380     1.0000 0.02840  0.92530  0.80820  Biso   1.000  C
  O191     1.0000 0.55243  0.31677  0.74327  Biso   1.000  O
  C381     1.0000 0.54220  0.38030  0.84100  Biso   1.000  C
  H381     1.0000 0.55050  0.39200  0.87480  Biso   1.000  H
  H382     1.0000 0.57190  0.36370  0.82700  Biso   1.000  H
  C382     1.0000 0.52840  0.42530  0.80820  Biso   1.000  C
  O192     1.0000 0.55243  0.81677  0.24327  Biso   1.000  O
  C383     1.0000 0.54220  0.88030  0.34100  Biso   1.000  C
  H383     1.0000 0.55050  0.89200  0.37480  Biso   1.000  H
  H384     1.0000 0.57190  0.86370  0.32700  Biso   1.000  H
  C384     1.0000 0.52840  0.92530  0.30820  Biso   1.000  C
  Cu1      1.0000 0.28467  0.28467  0.00000  Biso   1.000  Cu
  O193     1.0000 0.34373  0.34373  0.00000  Biso   1.000  O
  Cu2      1.0000 0.28467  0.78467  0.50000  Biso   1.000  Cu
  O194     1.0000 0.34373  0.84373  0.50000  Biso   1.000  O
  Cu3      1.0000 0.78467  0.28467  0.50000  Biso   1.000  Cu
  O195     1.0000 0.84373  0.34373  0.50000  Biso   1.000  O
  Cu4      1.0000 0.78467  0.78467  0.00000  Biso   1.000  Cu
  O196     1.0000 0.84373  0.84373  0.00000  Biso   1.000  O
  Cu5      1.0000 0.71533  0.71533  0.00000  Biso   1.000  Cu
  O197     1.0000 0.65627  0.65627  0.00000  Biso   1.000  O
  Cu6      1.0000 0.71533  0.21533  0.50000  Biso   1.000  Cu
  O198     1.0000 0.65627  0.15627  0.50000  Biso   1.000  O
  Cu7      1.0000 0.21533  0.71533  0.50000  Biso   1.000  Cu
  O199     1.0000 0.15627  0.65627  0.50000  Biso   1.000  O
  Cu8      1.0000 0.21533  0.21533  0.00000  Biso   1.000  Cu
  O200     1.0000 0.15627  0.15627  0.00000  Biso   1.000  O
  Cu9      1.0000 0.71533  0.28467  0.00000  Biso   1.000  Cu
  O201     1.0000 0.65627  0.34373  0.00000  Biso   1.000  O
  Cu10     1.0000 0.71533  0.78467  0.50000  Biso   1.000  Cu
  O202     1.0000 0.65627  0.84373  0.50000  Biso   1.000  O
  Cu11     1.0000 0.21533  0.28467  0.50000  Biso   1.000  Cu
  O203     1.0000 0.15627  0.34373  0.50000  Biso   1.000  O
  Cu12     1.0000 0.21533  0.78467  0.00000  Biso   1.000  Cu
  O204     1.0000 0.15627  0.84373  0.00000  Biso   1.000  O
  Cu13     1.0000 0.28467  0.71533  0.00000  Biso   1.000  Cu
  O205     1.0000 0.34373  0.65627  0.00000  Biso   1.000  O
  Cu14     1.0000 0.28467  0.21533  0.50000  Biso   1.000  Cu
  O206     1.0000 0.34373  0.15627  0.50000  Biso   1.000  O
  Cu15     1.0000 0.78467  0.71533  0.50000  Biso   1.000  Cu
  O207     1.0000 0.84373  0.65627  0.50000  Biso   1.000  O
  Cu16     1.0000 0.78467  0.21533  0.00000  Biso   1.000  Cu
  O208     1.0000 0.84373  0.15627  0.00000  Biso   1.000  O
  Cu17     1.0000 0.00000  0.28467  0.28467  Biso   1.000  Cu
  O209     1.0000 0.00000  0.34373  0.34373  Biso   1.000  O
  Cu18     1.0000 0.00000  0.78467  0.78467  Biso   1.000  Cu
  O210     1.0000 0.00000  0.84373  0.84373  Biso   1.000  O
  Cu19     1.0000 0.50000  0.28467  0.78467  Biso   1.000  Cu
  O211     1.0000 0.50000  0.34373  0.84373  Biso   1.000  O
  Cu20     1.0000 0.50000  0.78467  0.28467  Biso   1.000  Cu
  O212     1.0000 0.50000  0.84373  0.34373  Biso   1.000  O
  Cu21     1.0000 0.00000  0.71533  0.71533  Biso   1.000  Cu
  O213     1.0000 0.00000  0.65627  0.65627  Biso   1.000  O
  Cu22     1.0000 0.00000  0.21533  0.21533  Biso   1.000  Cu
  O214     1.0000 0.00000  0.15627  0.15627  Biso   1.000  O
  Cu23     1.0000 0.50000  0.71533  0.21533  Biso   1.000  Cu
  O215     1.0000 0.50000  0.65627  0.15627  Biso   1.000  O
  Cu24     1.0000 0.50000  0.21533  0.71533  Biso   1.000  Cu
  O216     1.0000 0.50000  0.15627  0.65627  Biso   1.000  O
  Cu25     1.0000 0.00000  0.71533  0.28467  Biso   1.000  Cu
  O217     1.0000 0.00000  0.65627  0.34373  Biso   1.000  O
  Cu26     1.0000 0.00000  0.21533  0.78467  Biso   1.000  Cu
  O218     1.0000 0.00000  0.15627  0.84373  Biso   1.000  O
  Cu27     1.0000 0.50000  0.71533  0.78467  Biso   1.000  Cu
  O219     1.0000 0.50000  0.65627  0.84373  Biso   1.000  O
  Cu28     1.0000 0.50000  0.21533  0.28467  Biso   1.000  Cu
  O220     1.0000 0.50000  0.15627  0.34373  Biso   1.000  O
  Cu29     1.0000 0.00000  0.28467  0.71533  Biso   1.000  Cu
  O221     1.0000 0.00000  0.34373  0.65627  Biso   1.000  O
  Cu30     1.0000 0.00000  0.78467  0.21533  Biso   1.000  Cu
  O222     1.0000 0.00000  0.84373  0.15627  Biso   1.000  O
  Cu31     1.0000 0.50000  0.28467  0.21533  Biso   1.000  Cu
  O223     1.0000 0.50000  0.34373  0.15627  Biso   1.000  O
  Cu32     1.0000 0.50000  0.78467  0.71533  Biso   1.000  Cu
  O224     1.0000 0.50000  0.84373  0.65627  Biso   1.000  O
  Cu33     1.0000 0.28467  0.00000  0.28467  Biso   1.000  Cu
  O225     1.0000 0.34373  0.00000  0.34373  Biso   1.000  O
  Cu34     1.0000 0.28467  0.50000  0.78467  Biso   1.000  Cu
  O226     1.0000 0.34373  0.50000  0.84373  Biso   1.000  O
  Cu35     1.0000 0.78467  0.00000  0.78467  Biso   1.000  Cu
  O227     1.0000 0.84373  0.00000  0.84373  Biso   1.000  O
  Cu36     1.0000 0.78467  0.50000  0.28467  Biso   1.000  Cu
  O228     1.0000 0.84373  0.50000  0.34373  Biso   1.000  O
  Cu37     1.0000 0.71533  0.00000  0.71533  Biso   1.000  Cu
  O229     1.0000 0.65627  0.00000  0.65627  Biso   1.000  O
  Cu38     1.0000 0.71533  0.50000  0.21533  Biso   1.000  Cu
  O230     1.0000 0.65627  0.50000  0.15627  Biso   1.000  O
  Cu39     1.0000 0.21533  0.00000  0.21533  Biso   1.000  Cu
  O231     1.0000 0.15627  0.00000  0.15627  Biso   1.000  O
  Cu40     1.0000 0.21533  0.50000  0.71533  Biso   1.000  Cu
  O232     1.0000 0.15627  0.50000  0.65627  Biso   1.000  O
  Cu41     1.0000 0.28467  0.00000  0.71533  Biso   1.000  Cu
  O233     1.0000 0.34373  0.00000  0.65627  Biso   1.000  O
  Cu42     1.0000 0.28467  0.50000  0.21533  Biso   1.000  Cu
  O234     1.0000 0.34373  0.50000  0.15627  Biso   1.000  O
  Cu43     1.0000 0.78467  0.00000  0.21533  Biso   1.000  Cu
  O235     1.0000 0.84373  0.00000  0.15627  Biso   1.000  O
  Cu44     1.0000 0.78467  0.50000  0.71533  Biso   1.000  Cu
  O236     1.0000 0.84373  0.50000  0.65627  Biso   1.000  O
  Cu45     1.0000 0.71533  0.00000  0.28467  Biso   1.000  Cu
  O237     1.0000 0.65627  0.00000  0.34373  Biso   1.000  O
  Cu46     1.0000 0.71533  0.50000  0.78467  Biso   1.000  Cu
  O238     1.0000 0.65627  0.50000  0.84373  Biso   1.000  O
  Cu47     1.0000 0.21533  0.00000  0.78467  Biso   1.000  Cu
  O239     1.0000 0.15627  0.00000  0.84373  Biso   1.000  O
  Cu48     1.0000 0.21533  0.50000  0.28467  Biso   1.000  Cu
  O240     1.0000 0.15627  0.50000  0.34373  Biso   1.000  O
  C385     1.0000 0.20302  0.29698  0.06887  Biso   1.000  C
  C386     1.0000 0.17748  0.32252  0.11295  Biso   1.000  C
  C387     1.0000 0.20302  0.79698  0.56887  Biso   1.000  C
  C388     1.0000 0.17748  0.82252  0.61295  Biso   1.000  C
  C389     1.0000 0.79698  0.70302  0.06887  Biso   1.000  C
  C390     1.0000 0.82252  0.67748  0.11295  Biso   1.000  C
  C391     1.0000 0.79698  0.20302  0.56887  Biso   1.000  C
  C392     1.0000 0.82252  0.17748  0.61295  Biso   1.000  C
  C393     1.0000 0.29698  0.20302  0.06887  Biso   1.000  C
  C394     1.0000 0.32252  0.17748  0.11295  Biso   1.000  C
  C395     1.0000 0.79698  0.29698  0.93113  Biso   1.000  C
  C396     1.0000 0.82252  0.32252  0.88705  Biso   1.000  C
  C397     1.0000 0.79698  0.79698  0.43113  Biso   1.000  C
  C398     1.0000 0.82252  0.82252  0.38705  Biso   1.000  C
  C399     1.0000 0.29698  0.29698  0.43113  Biso   1.000  C
  C400     1.0000 0.32252  0.32252  0.38705  Biso   1.000  C
  C401     1.0000 0.20302  0.70302  0.93113  Biso   1.000  C
  C402     1.0000 0.17748  0.67748  0.88705  Biso   1.000  C
  C403     1.0000 0.20302  0.20302  0.43113  Biso   1.000  C
  C404     1.0000 0.17748  0.17748  0.38705  Biso   1.000  C
  C405     1.0000 0.06887  0.20302  0.29698  Biso   1.000  C
  C406     1.0000 0.11295  0.17748  0.32252  Biso   1.000  C
  C407     1.0000 0.56887  0.20302  0.79698  Biso   1.000  C
  C408     1.0000 0.61295  0.17748  0.82252  Biso   1.000  C
  C409     1.0000 0.06887  0.79698  0.70302  Biso   1.000  C
  C410     1.0000 0.11295  0.82252  0.67748  Biso   1.000  C
  C411     1.0000 0.06887  0.29698  0.20302  Biso   1.000  C
  C412     1.0000 0.11295  0.32252  0.17748  Biso   1.000  C
  C413     1.0000 0.56887  0.79698  0.20302  Biso   1.000  C
  C414     1.0000 0.61295  0.82252  0.17748  Biso   1.000  C
  C415     1.0000 0.93113  0.79698  0.29698  Biso   1.000  C
  C416     1.0000 0.88705  0.82252  0.32252  Biso   1.000  C
  C417     1.0000 0.43113  0.79698  0.79698  Biso   1.000  C
  C418     1.0000 0.38705  0.82252  0.82252  Biso   1.000  C
  C419     1.0000 0.43113  0.29698  0.29698  Biso   1.000  C
  C420     1.0000 0.38705  0.32252  0.32252  Biso   1.000  C
  C421     1.0000 0.93113  0.20302  0.70302  Biso   1.000  C
  C422     1.0000 0.88705  0.17748  0.67748  Biso   1.000  C
  C423     1.0000 0.43113  0.20302  0.20302  Biso   1.000  C
  C424     1.0000 0.38705  0.17748  0.17748  Biso   1.000  C
  C425     1.0000 0.29698  0.06887  0.20302  Biso   1.000  C
  C426     1.0000 0.32252  0.11295  0.17748  Biso   1.000  C
  C427     1.0000 0.29698  0.56887  0.70302  Biso   1.000  C
  C428     1.0000 0.32252  0.61295  0.67748  Biso   1.000  C
  C429     1.0000 0.70302  0.06887  0.79698  Biso   1.000  C
  C430     1.0000 0.67748  0.11295  0.82252  Biso   1.000  C
  C431     1.0000 0.70302  0.56887  0.29698  Biso   1.000  C
  C432     1.0000 0.67748  0.61295  0.32252  Biso   1.000  C
  C433     1.0000 0.20302  0.06887  0.29698  Biso   1.000  C
  C434     1.0000 0.17748  0.11295  0.32252  Biso   1.000  C
  C435     1.0000 0.29698  0.93113  0.79698  Biso   1.000  C
  C436     1.0000 0.32252  0.88705  0.82252  Biso   1.000  C
  C437     1.0000 0.29698  0.43113  0.29698  Biso   1.000  C
  C438     1.0000 0.32252  0.38705  0.32252  Biso   1.000  C
  C439     1.0000 0.70302  0.93113  0.20302  Biso   1.000  C
  C440     1.0000 0.67748  0.88705  0.17748  Biso   1.000  C
  C441     1.0000 0.70302  0.43113  0.70302  Biso   1.000  C
  C442     1.0000 0.67748  0.38705  0.67748  Biso   1.000  C
  C443     1.0000 0.20302  0.43113  0.20302  Biso   1.000  C
  C444     1.0000 0.17748  0.38705  0.17748  Biso   1.000  C
  C445     1.0000 0.29698  0.20302  0.93113  Biso   1.000  C
  C446     1.0000 0.32252  0.17748  0.88705  Biso   1.000  C
  C447     1.0000 0.29698  0.70302  0.43113  Biso   1.000  C
  C448     1.0000 0.32252  0.67748  0.38705  Biso   1.000  C
  C449     1.0000 0.70302  0.79698  0.93113  Biso   1.000  C
  C450     1.0000 0.67748  0.82252  0.88705  Biso   1.000  C
  C451     1.0000 0.70302  0.29698  0.43113  Biso   1.000  C
  C452     1.0000 0.67748  0.32252  0.38705  Biso   1.000  C
  C453     1.0000 0.20302  0.29698  0.93113  Biso   1.000  C
  C454     1.0000 0.17748  0.32252  0.88705  Biso   1.000  C
  C455     1.0000 0.29698  0.79698  0.06887  Biso   1.000  C
  C456     1.0000 0.32252  0.82252  0.11295  Biso   1.000  C
  C457     1.0000 0.29698  0.29698  0.56887  Biso   1.000  C
  C458     1.0000 0.32252  0.32252  0.61295  Biso   1.000  C
  C459     1.0000 0.70302  0.20302  0.06887  Biso   1.000  C
  C460     1.0000 0.67748  0.17748  0.11295  Biso   1.000  C
  C461     1.0000 0.70302  0.70302  0.56887  Biso   1.000  C
  C462     1.0000 0.67748  0.67748  0.61295  Biso   1.000  C
  C463     1.0000 0.20302  0.20302  0.56887  Biso   1.000  C
  C464     1.0000 0.17748  0.17748  0.61295  Biso   1.000  C
  C465     1.0000 0.20302  0.06887  0.70302  Biso   1.000  C
  C466     1.0000 0.17748  0.11295  0.67748  Biso   1.000  C
  C467     1.0000 0.20302  0.56887  0.20302  Biso   1.000  C
  C468     1.0000 0.17748  0.61295  0.17748  Biso   1.000  C
  C469     1.0000 0.79698  0.06887  0.29698  Biso   1.000  C
  C470     1.0000 0.82252  0.11295  0.32252  Biso   1.000  C
  C471     1.0000 0.79698  0.56887  0.79698  Biso   1.000  C
  C472     1.0000 0.82252  0.61295  0.82252  Biso   1.000  C
  C473     1.0000 0.29698  0.56887  0.29698  Biso   1.000  C
  C474     1.0000 0.32252  0.61295  0.32252  Biso   1.000  C
  C475     1.0000 0.79698  0.93113  0.70302  Biso   1.000  C
  C476     1.0000 0.82252  0.88705  0.67748  Biso   1.000  C
  C477     1.0000 0.79698  0.43113  0.20302  Biso   1.000  C
  C478     1.0000 0.82252  0.38705  0.17748  Biso   1.000  C
  C479     1.0000 0.29698  0.93113  0.20302  Biso   1.000  C
  C480     1.0000 0.32252  0.88705  0.17748  Biso   1.000  C
  C481     1.0000 0.20302  0.93113  0.29698  Biso   1.000  C
  C482     1.0000 0.17748  0.88705  0.32252  Biso   1.000  C
  C483     1.0000 0.20302  0.43113  0.79698  Biso   1.000  C
  C484     1.0000 0.17748  0.38705  0.82252  Biso   1.000  C
  C485     1.0000 0.06887  0.29698  0.79698  Biso   1.000  C
  C486     1.0000 0.11295  0.32252  0.82252  Biso   1.000  C
  C487     1.0000 0.56887  0.29698  0.29698  Biso   1.000  C
  C488     1.0000 0.61295  0.32252  0.32252  Biso   1.000  C
  C489     1.0000 0.06887  0.70302  0.20302  Biso   1.000  C
  C490     1.0000 0.11295  0.67748  0.17748  Biso   1.000  C
  C491     1.0000 0.56887  0.70302  0.70302  Biso   1.000  C
  C492     1.0000 0.61295  0.67748  0.67748  Biso   1.000  C
  C493     1.0000 0.56887  0.20302  0.20302  Biso   1.000  C
  C494     1.0000 0.61295  0.17748  0.17748  Biso   1.000  C
  C495     1.0000 0.93113  0.29698  0.20302  Biso   1.000  C
  C496     1.0000 0.88705  0.32252  0.17748  Biso   1.000  C
  C497     1.0000 0.43113  0.29698  0.70302  Biso   1.000  C
  C498     1.0000 0.38705  0.32252  0.67748  Biso   1.000  C
  C499     1.0000 0.93113  0.70302  0.79698  Biso   1.000  C
  C500     1.0000 0.88705  0.67748  0.82252  Biso   1.000  C
  C501     1.0000 0.93113  0.20302  0.29698  Biso   1.000  C
  C502     1.0000 0.88705  0.17748  0.32252  Biso   1.000  C
  C503     1.0000 0.43113  0.70302  0.29698  Biso   1.000  C
  C504     1.0000 0.38705  0.67748  0.32252  Biso   1.000  C
  C505     1.0000 0.79698  0.70302  0.93113  Biso   1.000  C
  C506     1.0000 0.82252  0.67748  0.88705  Biso   1.000  C
  C507     1.0000 0.79698  0.20302  0.43113  Biso   1.000  C
  C508     1.0000 0.82252  0.17748  0.38705  Biso   1.000  C
  C509     1.0000 0.20302  0.79698  0.43113  Biso   1.000  C
  C510     1.0000 0.17748  0.82252  0.38705  Biso   1.000  C
  C511     1.0000 0.20302  0.70302  0.06887  Biso   1.000  C
  C512     1.0000 0.17748  0.67748  0.11295  Biso   1.000  C
  C513     1.0000 0.79698  0.29698  0.06887  Biso   1.000  C
  C514     1.0000 0.82252  0.32252  0.11295  Biso   1.000  C
  C515     1.0000 0.79698  0.79698  0.56887  Biso   1.000  C
  C516     1.0000 0.82252  0.82252  0.61295  Biso   1.000  C
  C517     1.0000 0.93113  0.79698  0.70302  Biso   1.000  C
  C518     1.0000 0.88705  0.82252  0.67748  Biso   1.000  C
  C519     1.0000 0.43113  0.79698  0.20302  Biso   1.000  C
  C520     1.0000 0.38705  0.82252  0.17748  Biso   1.000  C
  C521     1.0000 0.43113  0.20302  0.79698  Biso   1.000  C
  C522     1.0000 0.38705  0.17748  0.82252  Biso   1.000  C
  C523     1.0000 0.06887  0.20302  0.70302  Biso   1.000  C
  C524     1.0000 0.11295  0.17748  0.67748  Biso   1.000  C
  C525     1.0000 0.06887  0.79698  0.29698  Biso   1.000  C
  C526     1.0000 0.11295  0.82252  0.32252  Biso   1.000  C
  C527     1.0000 0.56887  0.79698  0.79698  Biso   1.000  C
  C528     1.0000 0.61295  0.82252  0.82252  Biso   1.000  C
  C529     1.0000 0.70302  0.93113  0.79698  Biso   1.000  C
  C530     1.0000 0.67748  0.88705  0.82252  Biso   1.000  C
  C531     1.0000 0.70302  0.43113  0.29698  Biso   1.000  C
  C532     1.0000 0.67748  0.38705  0.32252  Biso   1.000  C
  C533     1.0000 0.29698  0.43113  0.70302  Biso   1.000  C
  C534     1.0000 0.32252  0.38705  0.67748  Biso   1.000  C
  C535     1.0000 0.70302  0.06887  0.20302  Biso   1.000  C
  C536     1.0000 0.67748  0.11295  0.17748  Biso   1.000  C
  C537     1.0000 0.70302  0.56887  0.70302  Biso   1.000  C
  C538     1.0000 0.67748  0.61295  0.67748  Biso   1.000  C
  C539     1.0000 0.29698  0.06887  0.79698  Biso   1.000  C
  C540     1.0000 0.32252  0.11295  0.82252  Biso   1.000  C
  C541     1.0000 0.70302  0.79698  0.06887  Biso   1.000  C
  C542     1.0000 0.67748  0.82252  0.11295  Biso   1.000  C
  C543     1.0000 0.70302  0.29698  0.56887  Biso   1.000  C
  C544     1.0000 0.67748  0.32252  0.61295  Biso   1.000  C
  C545     1.0000 0.29698  0.70302  0.56887  Biso   1.000  C
  C546     1.0000 0.32252  0.67748  0.61295  Biso   1.000  C
  C547     1.0000 0.70302  0.20302  0.93113  Biso   1.000  C
  C548     1.0000 0.67748  0.17748  0.88705  Biso   1.000  C
  C549     1.0000 0.70302  0.70302  0.43113  Biso   1.000  C
  C550     1.0000 0.67748  0.67748  0.38705  Biso   1.000  C
  C551     1.0000 0.29698  0.79698  0.93113  Biso   1.000  C
  C552     1.0000 0.32252  0.82252  0.88705  Biso   1.000  C
  C553     1.0000 0.79698  0.93113  0.29698  Biso   1.000  C
  C554     1.0000 0.82252  0.88705  0.32252  Biso   1.000  C
  C555     1.0000 0.79698  0.43113  0.79698  Biso   1.000  C
  C556     1.0000 0.82252  0.38705  0.82252  Biso   1.000  C
  C557     1.0000 0.20302  0.93113  0.70302  Biso   1.000  C
  C558     1.0000 0.17748  0.88705  0.67748  Biso   1.000  C
  C559     1.0000 0.20302  0.56887  0.79698  Biso   1.000  C
  C560     1.0000 0.17748  0.61295  0.82252  Biso   1.000  C
  C561     1.0000 0.79698  0.06887  0.70302  Biso   1.000  C
  C562     1.0000 0.82252  0.11295  0.67748  Biso   1.000  C
  C563     1.0000 0.79698  0.56887  0.20302  Biso   1.000  C
  C564     1.0000 0.82252  0.61295  0.17748  Biso   1.000  C
  C565     1.0000 0.93113  0.70302  0.20302  Biso   1.000  C
  C566     1.0000 0.88705  0.67748  0.17748  Biso   1.000  C
  C567     1.0000 0.43113  0.70302  0.70302  Biso   1.000  C
  C568     1.0000 0.38705  0.67748  0.67748  Biso   1.000  C
  C569     1.0000 0.93113  0.29698  0.79698  Biso   1.000  C
  C570     1.0000 0.88705  0.32252  0.82252  Biso   1.000  C
  C571     1.0000 0.06887  0.70302  0.79698  Biso   1.000  C
  C572     1.0000 0.11295  0.67748  0.82252  Biso   1.000  C
  C573     1.0000 0.56887  0.70302  0.29698  Biso   1.000  C
  C574     1.0000 0.61295  0.67748  0.32252  Biso   1.000  C
  C575     1.0000 0.56887  0.29698  0.70302  Biso   1.000  C
  C576     1.0000 0.61295  0.32252  0.67748  Biso   1.000  C
  C577     1.0000 0.13450  0.30106  0.13450  Biso   1.000  C
  H385     1.0000 0.12010  0.27230  0.12010  Biso   1.000  H
  C578     1.0000 0.13450  0.80106  0.63450  Biso   1.000  C
  H386     1.0000 0.12010  0.77230  0.62010  Biso   1.000  H
  C579     1.0000 0.63450  0.30106  0.63450  Biso   1.000  C
  H387     1.0000 0.62010  0.27230  0.62010  Biso   1.000  H
  C580     1.0000 0.63450  0.80106  0.13450  Biso   1.000  C
  H388     1.0000 0.62010  0.77230  0.12010  Biso   1.000  H
  C581     1.0000 0.86550  0.69894  0.13450  Biso   1.000  C
  H389     1.0000 0.87990  0.72770  0.12010  Biso   1.000  H
  C582     1.0000 0.86550  0.19894  0.63450  Biso   1.000  C
  H390     1.0000 0.87990  0.22770  0.62010  Biso   1.000  H
  C583     1.0000 0.36550  0.69894  0.63450  Biso   1.000  C
  H391     1.0000 0.37990  0.72770  0.62010  Biso   1.000  H
  C584     1.0000 0.36550  0.19894  0.13450  Biso   1.000  C
  H392     1.0000 0.37990  0.22770  0.12010  Biso   1.000  H
  C585     1.0000 0.86550  0.30106  0.86550  Biso   1.000  C
  H393     1.0000 0.87990  0.27230  0.87990  Biso   1.000  H
  C586     1.0000 0.86550  0.80106  0.36550  Biso   1.000  C
  H394     1.0000 0.87990  0.77230  0.37990  Biso   1.000  H
  C587     1.0000 0.36550  0.30106  0.36550  Biso   1.000  C
  H395     1.0000 0.37990  0.27230  0.37990  Biso   1.000  H
  C588     1.0000 0.36550  0.80106  0.86550  Biso   1.000  C
  H396     1.0000 0.37990  0.77230  0.87990  Biso   1.000  H
  C589     1.0000 0.13450  0.69894  0.86550  Biso   1.000  C
  H397     1.0000 0.12010  0.72770  0.87990  Biso   1.000  H
  C590     1.0000 0.13450  0.19894  0.36550  Biso   1.000  C
  H398     1.0000 0.12010  0.22770  0.37990  Biso   1.000  H
  C591     1.0000 0.63450  0.69894  0.36550  Biso   1.000  C
  H399     1.0000 0.62010  0.72770  0.37990  Biso   1.000  H
  C592     1.0000 0.63450  0.19894  0.86550  Biso   1.000  C
  H400     1.0000 0.62010  0.22770  0.87990  Biso   1.000  H
  C593     1.0000 0.13450  0.13450  0.30106  Biso   1.000  C
  H401     1.0000 0.12010  0.12010  0.27230  Biso   1.000  H
  C594     1.0000 0.13450  0.63450  0.80106  Biso   1.000  C
  H402     1.0000 0.12010  0.62010  0.77230  Biso   1.000  H
  C595     1.0000 0.63450  0.13450  0.80106  Biso   1.000  C
  H403     1.0000 0.62010  0.12010  0.77230  Biso   1.000  H
  C596     1.0000 0.63450  0.63450  0.30106  Biso   1.000  C
  H404     1.0000 0.62010  0.62010  0.27230  Biso   1.000  H
  C597     1.0000 0.13450  0.86550  0.69894  Biso   1.000  C
  H405     1.0000 0.12010  0.87990  0.72770  Biso   1.000  H
  C598     1.0000 0.13450  0.36550  0.19894  Biso   1.000  C
  H406     1.0000 0.12010  0.37990  0.22770  Biso   1.000  H
  C599     1.0000 0.63450  0.86550  0.19894  Biso   1.000  C
  H407     1.0000 0.62010  0.87990  0.22770  Biso   1.000  H
  C600     1.0000 0.63450  0.36550  0.69894  Biso   1.000  C
  H408     1.0000 0.62010  0.37990  0.72770  Biso   1.000  H
  C601     1.0000 0.86550  0.86550  0.30106  Biso   1.000  C
  H409     1.0000 0.87990  0.87990  0.27230  Biso   1.000  H
  C602     1.0000 0.86550  0.36550  0.80106  Biso   1.000  C
  H410     1.0000 0.87990  0.37990  0.77230  Biso   1.000  H
  C603     1.0000 0.36550  0.86550  0.80106  Biso   1.000  C
  H411     1.0000 0.37990  0.87990  0.77230  Biso   1.000  H
  C604     1.0000 0.36550  0.36550  0.30106  Biso   1.000  C
  H412     1.0000 0.37990  0.37990  0.27230  Biso   1.000  H
  C605     1.0000 0.86550  0.13450  0.69894  Biso   1.000  C
  H413     1.0000 0.87990  0.12010  0.72770  Biso   1.000  H
  C606     1.0000 0.86550  0.63450  0.19894  Biso   1.000  C
  H414     1.0000 0.87990  0.62010  0.22770  Biso   1.000  H
  C607     1.0000 0.36550  0.13450  0.19894  Biso   1.000  C
  H415     1.0000 0.37990  0.12010  0.22770  Biso   1.000  H
  C608     1.0000 0.36550  0.63450  0.69894  Biso   1.000  C
  H416     1.0000 0.37990  0.62010  0.72770  Biso   1.000  H
  C609     1.0000 0.30106  0.13450  0.13450  Biso   1.000  C
  H417     1.0000 0.27230  0.12010  0.12010  Biso   1.000  H
  C610     1.0000 0.30106  0.63450  0.63450  Biso   1.000  C
  H418     1.0000 0.27230  0.62010  0.62010  Biso   1.000  H
  C611     1.0000 0.80106  0.13450  0.63450  Biso   1.000  C
  H419     1.0000 0.77230  0.12010  0.62010  Biso   1.000  H
  C612     1.0000 0.80106  0.63450  0.13450  Biso   1.000  C
  H420     1.0000 0.77230  0.62010  0.12010  Biso   1.000  H
  C613     1.0000 0.69894  0.13450  0.86550  Biso   1.000  C
  H421     1.0000 0.72770  0.12010  0.87990  Biso   1.000  H
  C614     1.0000 0.69894  0.63450  0.36550  Biso   1.000  C
  H422     1.0000 0.72770  0.62010  0.37990  Biso   1.000  H
  C615     1.0000 0.19894  0.13450  0.36550  Biso   1.000  C
  H423     1.0000 0.22770  0.12010  0.37990  Biso   1.000  H
  C616     1.0000 0.19894  0.63450  0.86550  Biso   1.000  C
  H424     1.0000 0.22770  0.62010  0.87990  Biso   1.000  H
  C617     1.0000 0.30106  0.86550  0.86550  Biso   1.000  C
  H425     1.0000 0.27230  0.87990  0.87990  Biso   1.000  H
  C618     1.0000 0.30106  0.36550  0.36550  Biso   1.000  C
  H426     1.0000 0.27230  0.37990  0.37990  Biso   1.000  H
  C619     1.0000 0.80106  0.86550  0.36550  Biso   1.000  C
  H427     1.0000 0.77230  0.87990  0.37990  Biso   1.000  H
  C620     1.0000 0.80106  0.36550  0.86550  Biso   1.000  C
  H428     1.0000 0.77230  0.37990  0.87990  Biso   1.000  H
  C621     1.0000 0.69894  0.86550  0.13450  Biso   1.000  C
  H429     1.0000 0.72770  0.87990  0.12010  Biso   1.000  H
  C622     1.0000 0.69894  0.36550  0.63450  Biso   1.000  C
  H430     1.0000 0.72770  0.37990  0.62010  Biso   1.000  H
  C623     1.0000 0.19894  0.86550  0.63450  Biso   1.000  C
  H431     1.0000 0.22770  0.87990  0.62010  Biso   1.000  H
  C624     1.0000 0.19894  0.36550  0.13450  Biso   1.000  C
  H432     1.0000 0.22770  0.37990  0.12010  Biso   1.000  H
  C625     1.0000 0.30106  0.13450  0.86550  Biso   1.000  C
  H433     1.0000 0.27230  0.12010  0.87990  Biso   1.000  H
  C626     1.0000 0.30106  0.63450  0.36550  Biso   1.000  C
  H434     1.0000 0.27230  0.62010  0.37990  Biso   1.000  H
  C627     1.0000 0.80106  0.13450  0.36550  Biso   1.000  C
  H435     1.0000 0.77230  0.12010  0.37990  Biso   1.000  H
  C628     1.0000 0.80106  0.63450  0.86550  Biso   1.000  C
  H436     1.0000 0.77230  0.62010  0.87990  Biso   1.000  H
  C629     1.0000 0.69894  0.86550  0.86550  Biso   1.000  C
  H437     1.0000 0.72770  0.87990  0.87990  Biso   1.000  H
  C630     1.0000 0.69894  0.36550  0.36550  Biso   1.000  C
  H438     1.0000 0.72770  0.37990  0.37990  Biso   1.000  H
  C631     1.0000 0.19894  0.86550  0.36550  Biso   1.000  C
  H439     1.0000 0.22770  0.87990  0.37990  Biso   1.000  H
  C632     1.0000 0.19894  0.36550  0.86550  Biso   1.000  C
  H440     1.0000 0.22770  0.37990  0.87990  Biso   1.000  H
  C633     1.0000 0.30106  0.86550  0.13450  Biso   1.000  C
  H441     1.0000 0.27230  0.87990  0.12010  Biso   1.000  H
  C634     1.0000 0.30106  0.36550  0.63450  Biso   1.000  C
  H442     1.0000 0.27230  0.37990  0.62010  Biso   1.000  H
  C635     1.0000 0.80106  0.86550  0.63450  Biso   1.000  C
  H443     1.0000 0.77230  0.87990  0.62010  Biso   1.000  H
  C636     1.0000 0.80106  0.36550  0.13450  Biso   1.000  C
  H444     1.0000 0.77230  0.37990  0.12010  Biso   1.000  H
  C637     1.0000 0.69894  0.13450  0.13450  Biso   1.000  C
  H445     1.0000 0.72770  0.12010  0.12010  Biso   1.000  H
  C638     1.0000 0.69894  0.63450  0.63450  Biso   1.000  C
  H446     1.0000 0.72770  0.62010  0.62010  Biso   1.000  H
  C639     1.0000 0.19894  0.13450  0.63450  Biso   1.000  C
  H447     1.0000 0.22770  0.12010  0.62010  Biso   1.000  H
  C640     1.0000 0.19894  0.63450  0.13450  Biso   1.000  C
  H448     1.0000 0.22770  0.62010  0.12010  Biso   1.000  H
  C641     1.0000 0.13450  0.13450  0.69894  Biso   1.000  C
  H449     1.0000 0.12010  0.12010  0.72770  Biso   1.000  H
  C642     1.0000 0.13450  0.63450  0.19894  Biso   1.000  C
  H450     1.0000 0.12010  0.62010  0.22770  Biso   1.000  H
  C643     1.0000 0.63450  0.13450  0.19894  Biso   1.000  C
  H451     1.0000 0.62010  0.12010  0.22770  Biso   1.000  H
  C644     1.0000 0.63450  0.63450  0.69894  Biso   1.000  C
  H452     1.0000 0.62010  0.62010  0.72770  Biso   1.000  H
  C645     1.0000 0.86550  0.13450  0.30106  Biso   1.000  C
  H453     1.0000 0.87990  0.12010  0.27230  Biso   1.000  H
  C646     1.0000 0.86550  0.63450  0.80106  Biso   1.000  C
  H454     1.0000 0.87990  0.62010  0.77230  Biso   1.000  H
  C647     1.0000 0.36550  0.13450  0.80106  Biso   1.000  C
  H455     1.0000 0.37990  0.12010  0.77230  Biso   1.000  H
  C648     1.0000 0.36550  0.63450  0.30106  Biso   1.000  C
  H456     1.0000 0.37990  0.62010  0.27230  Biso   1.000  H
  C649     1.0000 0.86550  0.86550  0.69894  Biso   1.000  C
  H457     1.0000 0.87990  0.87990  0.72770  Biso   1.000  H
  C650     1.0000 0.86550  0.36550  0.19894  Biso   1.000  C
  H458     1.0000 0.87990  0.37990  0.22770  Biso   1.000  H
  C651     1.0000 0.36550  0.86550  0.19894  Biso   1.000  C
  H459     1.0000 0.37990  0.87990  0.22770  Biso   1.000  H
  C652     1.0000 0.36550  0.36550  0.69894  Biso   1.000  C
  H460     1.0000 0.37990  0.37990  0.72770  Biso   1.000  H
  C653     1.0000 0.13450  0.86550  0.30106  Biso   1.000  C
  H461     1.0000 0.12010  0.87990  0.27230  Biso   1.000  H
  C654     1.0000 0.13450  0.36550  0.80106  Biso   1.000  C
  H462     1.0000 0.12010  0.37990  0.77230  Biso   1.000  H
  C655     1.0000 0.63450  0.86550  0.80106  Biso   1.000  C
  H463     1.0000 0.62010  0.87990  0.77230  Biso   1.000  H
  C656     1.0000 0.63450  0.36550  0.30106  Biso   1.000  C
  H464     1.0000 0.62010  0.37990  0.27230  Biso   1.000  H
  C657     1.0000 0.13450  0.30106  0.86550  Biso   1.000  C
  H465     1.0000 0.12010  0.27230  0.87990  Biso   1.000  H
  C658     1.0000 0.13450  0.80106  0.36550  Biso   1.000  C
  H466     1.0000 0.12010  0.77230  0.37990  Biso   1.000  H
  C659     1.0000 0.63450  0.30106  0.36550  Biso   1.000  C
  H467     1.0000 0.62010  0.27230  0.37990  Biso   1.000  H
  C660     1.0000 0.63450  0.80106  0.86550  Biso   1.000  C
  H468     1.0000 0.62010  0.77230  0.87990  Biso   1.000  H
  C661     1.0000 0.13450  0.69894  0.13450  Biso   1.000  C
  H469     1.0000 0.12010  0.72770  0.12010  Biso   1.000  H
  C662     1.0000 0.13450  0.19894  0.63450  Biso   1.000  C
  H470     1.0000 0.12010  0.22770  0.62010  Biso   1.000  H
  C663     1.0000 0.63450  0.69894  0.63450  Biso   1.000  C
  H471     1.0000 0.62010  0.72770  0.62010  Biso   1.000  H
  C664     1.0000 0.63450  0.19894  0.13450  Biso   1.000  C
  H472     1.0000 0.62010  0.22770  0.12010  Biso   1.000  H
  C665     1.0000 0.86550  0.30106  0.13450  Biso   1.000  C
  H473     1.0000 0.87990  0.27230  0.12010  Biso   1.000  H
  C666     1.0000 0.86550  0.80106  0.63450  Biso   1.000  C
  H474     1.0000 0.87990  0.77230  0.62010  Biso   1.000  H
  C667     1.0000 0.36550  0.30106  0.63450  Biso   1.000  C
  H475     1.0000 0.37990  0.27230  0.62010  Biso   1.000  H
  C668     1.0000 0.36550  0.80106  0.13450  Biso   1.000  C
  H476     1.0000 0.37990  0.77230  0.12010  Biso   1.000  H
  C669     1.0000 0.86550  0.69894  0.86550  Biso   1.000  C
  H477     1.0000 0.87990  0.72770  0.87990  Biso   1.000  H
  C670     1.0000 0.86550  0.19894  0.36550  Biso   1.000  C
  H478     1.0000 0.87990  0.22770  0.37990  Biso   1.000  H
  C671     1.0000 0.36550  0.69894  0.36550  Biso   1.000  C
  H479     1.0000 0.37990  0.72770  0.37990  Biso   1.000  H
  C672     1.0000 0.36550  0.19894  0.86550  Biso   1.000  C
  H480     1.0000 0.37990  0.22770  0.87990  Biso   1.000  H
