data_image0
_cell_length_a       27.3062
_cell_length_b       19.4347
_cell_length_c       31.177
_cell_angle_alpha    90
_cell_angle_beta     90
_cell_angle_gamma    90

_symmetry_space_group_name_H-M    "P 1"
_symmetry_int_tables_number       1

loop_
  _symmetry_equiv_pos_as_xyz
  'x, y, z'

loop_
  _atom_site_label
  _atom_site_occupancy
  _atom_site_fract_x
  _atom_site_fract_y
  _atom_site_fract_z
  _atom_site_thermal_displace_type
  _atom_site_B_iso_or_equiv
  _atom_site_type_symbol
  Sr1      1.0000 0.21153  0.42002  0.17392  Biso   1.000  Sr
  Sr2      1.0000 0.29088  0.26572  0.19869  Biso   1.000  Sr
  Sr3      1.0000 0.22805  0.09955  0.14948  Biso   1.000  Sr
  C1       1.0000 0.32470  0.24240  0.43481  Biso   1.000  C
  C2       1.0000 0.37160  0.25080  0.41910  Biso   1.000  C
  C3       1.0000 0.38030  0.25550  0.37588  Biso   1.000  C
  H1       1.0000 0.41300  0.26110  0.36610  Biso   1.000  H
  C4       1.0000 0.34310  0.25240  0.34616  Biso   1.000  C
  C5       1.0000 0.29570  0.24650  0.36110  Biso   1.000  C
  H2       1.0000 0.26920  0.24560  0.34140  Biso   1.000  H
  C6       1.0000 0.28660  0.24170  0.40430  Biso   1.000  C
  H3       1.0000 0.25370  0.23790  0.41400  Biso   1.000  H
  O1       1.0000 0.41126  0.25570  0.44587  Biso   1.000  O
  H4       1.0000 0.41470  0.21860  0.45940  Biso   1.000  H
  C7       1.0000 0.35360  0.25780  0.29877  Biso   1.000  C
  O2       1.0000 0.39700  0.26758  0.28739  Biso   1.000  O
  O3       1.0000 0.31834  0.25170  0.27350  Biso   1.000  O
  C8       1.0000 0.31250  0.23520  0.48183  Biso   1.000  C
  C9       1.0000 0.32910  0.28000  0.51323  Biso   1.000  C
  C10      1.0000 0.31270  0.27530  0.55477  Biso   1.000  C
  H5       1.0000 0.32350  0.30770  0.57550  Biso   1.000  H
  C11      1.0000 0.28030  0.22320  0.56669  Biso   1.000  C
  C12      1.0000 0.26500  0.17640  0.53600  Biso   1.000  C
  H6       1.0000 0.24410  0.13960  0.54400  Biso   1.000  H
  C13      1.0000 0.27990  0.18300  0.49430  Biso   1.000  C
  H7       1.0000 0.26790  0.15170  0.47340  Biso   1.000  H
  O4       1.0000 0.36201  0.33010  0.50147  Biso   1.000  O
  H8       1.0000 0.36880  0.35460  0.52290  Biso   1.000  H
  C14      1.0000 0.26030  0.22250  0.61111  Biso   1.000  C
  O5       1.0000 0.25883  0.27764  0.63149  Biso   1.000  O
  O6       1.0000 0.24499  0.16679  0.62714  Biso   1.000  O
  C15      1.0000 0.42991  0.50490  0.30133  Biso   1.000  C
  C16      1.0000 0.41860  0.43700  0.28904  Biso   1.000  C
  C17      1.0000 0.37924  0.42250  0.26278  Biso   1.000  C
  H9       1.0000 0.37340  0.37640  0.25410  Biso   1.000  H
  C18      1.0000 0.34786  0.47460  0.24884  Biso   1.000  C
  C19      1.0000 0.35760  0.54180  0.26182  Biso   1.000  C
  H10      1.0000 0.33620  0.57780  0.25320  Biso   1.000  H
  C20      1.0000 0.39760  0.55670  0.28706  Biso   1.000  C
  H11      1.0000 0.40360  0.60310  0.29510  Biso   1.000  H
  O7       1.0000 0.44862  0.38570  0.30345  Biso   1.000  O
  H12      1.0000 0.43690  0.34740  0.29650  Biso   1.000  H
  C21      1.0000 0.30490  0.45800  0.22114  Biso   1.000  C
  O8       1.0000 0.29504  0.39542  0.21309  Biso   1.000  O
  O9       1.0000 0.27961  0.50701  0.20633  Biso   1.000  O
  C22      1.0000 0.47403  0.52280  0.32733  Biso   1.000  C
  C23      1.0000 0.46947  0.56400  0.36413  Biso   1.000  C
  C24      1.0000 0.51179  0.58470  0.38653  Biso   1.000  C
  H13      1.0000 0.50830  0.61240  0.41150  Biso   1.000  H
  C25      1.0000 0.55813  0.56590  0.37321  Biso   1.000  C
  C26      1.0000 0.56261  0.52550  0.33669  Biso   1.000  C
  H14      1.0000 0.59410  0.51260  0.32670  Biso   1.000  H
  C27      1.0000 0.52080  0.50380  0.31467  Biso   1.000  C
  H15      1.0000 0.52450  0.47510  0.29020  Biso   1.000  H
  O10      1.0000 0.42390  0.58360  0.37845  Biso   1.000  O
  H16      1.0000 0.40230  0.56770  0.36200  Biso   1.000  H
  C28      1.0000 0.60268  0.59090  0.39778  Biso   1.000  C
  O11      1.0000 0.64323  0.59364  0.37868  Biso   1.000  O
  O12      1.0000 0.59515  0.60880  0.43598  Biso   1.000  O
  C29      1.0000 0.47530  0.06720  0.24000  Biso   1.000  C
  C30      1.0000 0.44380  0.12060  0.24990  Biso   1.000  C
  C31      1.0000 0.39840  0.12710  0.22910  Biso   1.000  C
  H17      1.0000 0.37740  0.16450  0.23590  Biso   1.000  H
  C32      1.0000 0.38412  0.07930  0.19880  Biso   1.000  C
  C33      1.0000 0.41500  0.02470  0.18790  Biso   1.000  C
  H18      1.0000 0.40560  0.99200  0.16680  Biso   1.000  H
  C34      1.0000 0.46050  0.01940  0.20900  Biso   1.000  C
  H19      1.0000 0.48170  0.98240  0.20190  Biso   1.000  H
  O13      1.0000 0.45815  0.16460  0.28150  Biso   1.000  O
  H20      1.0000 0.44050  0.20000  0.28100  Biso   1.000  H
  C35      1.0000 0.33436  0.08690  0.17857  Biso   1.000  C
  O14      1.0000 0.31038  0.14167  0.18598  Biso   1.000  O
  O15      1.0000 0.31708  0.03866  0.15683  Biso   1.000  O
  C36      1.0000 0.02700  0.25170  0.24430  Biso   1.000  C
  C37      1.0000 0.05780  0.30670  0.25440  Biso   1.000  C
  C38      1.0000 0.10660  0.30480  0.24340  Biso   1.000  C
  H21      1.0000 0.12640  0.34410  0.24880  Biso   1.000  H
  C39      1.0000 0.12790  0.24690  0.22449  Biso   1.000  C
  C40      1.0000 0.09697  0.19180  0.21470  Biso   1.000  C
  H22      1.0000 0.11010  0.15180  0.20140  Biso   1.000  H
  C41      1.0000 0.04700  0.19480  0.22423  Biso   1.000  C
  H23      1.0000 0.02640  0.15720  0.21680  Biso   1.000  H
  O16      1.0000 0.04000  0.36380  0.27560  Biso   1.000  O
  H24      1.0000 0.02470  0.38880  0.25830  Biso   1.000  H
  C42      1.0000 0.18180  0.24450  0.21503  Biso   1.000  C
  O17      1.0000 0.20282  0.30267  0.21204  Biso   1.000  O
  O18      1.0000 0.20287  0.18869  0.21161  Biso   1.000  O
  O19      1.0000 0.22521  0.97809  0.11496  Biso   1.000  O
  C43      1.0000 0.18730  0.94680  0.10627  Biso   1.000  C
  H25      1.0000 0.17280  0.91990  0.12830  Biso   1.000  H
  N1       1.0000 0.16502  0.94780  0.06843  Biso   1.000  N
  C44      1.0000 0.18490  0.98900  0.03370  Biso   1.000  C
  H26      1.0000 0.15880  0.01730  0.02130  Biso   1.000  H
  H27      1.0000 0.19840  0.95870  0.01160  Biso   1.000  H
  H28      1.0000 0.21080  0.01890  0.04480  Biso   1.000  H
  C45      1.0000 0.11810  0.91040  0.06140  Biso   1.000  C
  H29      1.0000 0.11150  0.88040  0.08610  Biso   1.000  H
  H30      1.0000 0.12060  0.88240  0.03540  Biso   1.000  H
  H31      1.0000 0.09140  0.94360  0.05830  Biso   1.000  H
  O20      1.0000 0.17865  0.45500  0.24622  Biso   1.000  O
  C46      1.0000 0.16670  0.48420  0.27390  Biso   1.000  C
  H32      1.0000 0.14020  0.45660  0.28360  Biso   1.000  H
  N2       1.0000 0.16590  0.53020  0.30030  Biso   1.000  N
  C47      1.0000 0.12840  0.55300  0.33600  Biso   1.000  C
  H33      1.0000 0.14150  0.59270  0.35160  Biso   1.000  H
  H34      1.0000 0.12300  0.51490  0.35600  Biso   1.000  H
  H35      1.0000 0.09720  0.56570  0.32250  Biso   1.000  H
  C48      1.0000 0.21790  0.56170  0.29950  Biso   1.000  C
  H36      1.0000 0.24220  0.52540  0.30430  Biso   1.000  H
  H37      1.0000 0.22070  0.59650  0.32210  Biso   1.000  H
  H38      1.0000 0.22370  0.58320  0.27150  Biso   1.000  H
  O21      1.0000 0.36630  0.28560  0.15780  Biso   1.000  O
  C49      1.0000 0.40920  0.26990  0.16440  Biso   1.000  C
  H39      1.0000 0.42280  0.28690  0.19040  Biso   1.000  H
  C50      1.0000 0.47650  0.19130  0.13120  Biso   1.000  C
  H40      1.0000 0.46360  0.14830  0.11930  Biso   1.000  H
  H41      1.0000 0.49580  0.18120  0.15700  Biso   1.000  H
  H42      1.0000 0.49740  0.21390  0.10990  Biso   1.000  H
  C51      1.0000 0.39760  0.21240  0.10980  Biso   1.000  C
  H43      1.0000 0.36890  0.24230  0.11260  Biso   1.000  H
  H44      1.0000 0.38820  0.16470  0.11570  Biso   1.000  H
  H45      1.0000 0.41060  0.21580  0.08060  Biso   1.000  H
  O22      1.0000 0.27002  0.10800  0.07443  Biso   1.000  O
  C52      1.0000 0.29640  0.15500  0.06110  Biso   1.000  C
  H46      1.0000 0.31060  0.18110  0.08370  Biso   1.000  H
  N3       1.0000 0.30910  0.17670  0.02410  Biso   1.000  N
  C53      1.0000 0.28690  0.13650  0.98710  Biso   1.000  C
  H47      1.0000 0.26320  0.10320  0.99840  Biso   1.000  H
  H48      1.0000 0.31290  0.11200  0.97170  Biso   1.000  H
  H49      1.0000 0.27040  0.16820  0.96750  Biso   1.000  H
  C54      1.0000 0.34190  0.22700  0.01380  Biso   1.000  C
  H50      1.0000 0.32840  0.25580  0.99090  Biso   1.000  H
  H51      1.0000 0.37250  0.20590  0.00410  Biso   1.000  H
  H52      1.0000 0.34840  0.25540  0.03920  Biso   1.000  H
  O23      1.0000 0.13650  0.38390  0.13340  Biso   1.000  O
  N4       1.0000 0.06500  0.32720  0.11090  Biso   1.000  N
  N5       1.0000 0.43710  0.23520  0.14200  Biso   1.000  N
  C55      1.0000 0.11050  0.33200  0.12850  Biso   1.000  C
  H53      1.0000 0.12430  0.29010  0.13850  Biso   1.000  H
  C56      1.0000 0.04260  0.25920  0.10610  Biso   1.000  C
  H54      1.0000 0.03460  0.25140  0.07580  Biso   1.000  H
  H55      1.0000 0.01260  0.25700  0.12330  Biso   1.000  H
  H56      1.0000 0.06560  0.22380  0.11590  Biso   1.000  H
  C57      1.0000 0.03130  0.38640  0.11440  Biso   1.000  C
  H57      1.0000 0.00010  0.37500  0.10050  Biso   1.000  H
  H58      1.0000 0.04580  0.42650  0.10030  Biso   1.000  H
  H59      1.0000 0.02550  0.39690  0.14470  Biso   1.000  H
  C58      1.0000 0.39140  0.24560  0.13830  Biso   1.000  C
  H60      1.0000 0.37500  0.21830  0.11750  Biso   1.000  H
  C59      1.0000 0.45950  0.28630  0.18030  Biso   1.000  C
  H61      1.0000 0.43330  0.31590  0.19140  Biso   1.000  H
  H62      1.0000 0.48570  0.31490  0.16830  Biso   1.000  H
  H63      1.0000 0.47260  0.25810  0.20370  Biso   1.000  H
  C60      1.0000 0.29710  0.06770  0.05600  Biso   1.000  C
  H64      1.0000 0.30170  0.02390  0.06890  Biso   1.000  H
  N6       1.0000 0.32120  0.07970  0.01900  Biso   1.000  N
  C61      1.0000 0.32090  0.14670  0.00210  Biso   1.000  C
  H65      1.0000 0.30890  0.14560  0.97250  Biso   1.000  H
  H66      1.0000 0.35430  0.16530  0.00260  Biso   1.000  H
  H67      1.0000 0.29950  0.17590  0.01960  Biso   1.000  H
  C62      1.0000 0.35320  0.01580  0.00870  Biso   1.000  C
  H68      1.0000 0.37190  0.02410  0.98240  Biso   1.000  H
  H69      1.0000 0.33200  0.97550  0.00470  Biso   1.000  H
  H70      1.0000 0.37580  0.00730  0.03260  Biso   1.000  H
  H71      1.0000 0.34790  0.98050  0.03070  Biso   1.000  H
  H72      1.0000 0.38780  0.02910  0.00840  Biso   1.000  H
  H73      1.0000 0.34400  0.99730  0.98060  Biso   1.000  H
  C63      1.0000 0.05520  0.32480  0.13300  Biso   1.000  C
  H74      1.0000 0.07840  0.32910  0.15680  Biso   1.000  H
  H75      1.0000 0.03610  0.28240  0.13650  Biso   1.000  H
  H76      1.0000 0.03300  0.36450  0.13290  Biso   1.000  H
  C64      1.0000 0.12040  0.36350  0.09870  Biso   1.000  C
  H77      1.0000 0.13680  0.37770  0.07340  Biso   1.000  H
  N7       1.0000 0.08070  0.32230  0.09440  Biso   1.000  N
  C65      1.0000 0.05660  0.29340  0.05740  Biso   1.000  C
  H78      1.0000 0.02210  0.30770  0.05710  Biso   1.000  H
  H79      1.0000 0.05840  0.24310  0.05860  Biso   1.000  H
  H80      1.0000 0.07270  0.30980  0.03120  Biso   1.000  H
  H81      1.0000 0.09960  0.52280  0.33520  Biso   1.000  H
  H82      1.0000 0.11820  0.60060  0.33080  Biso   1.000  H
  H83      1.0000 0.14390  0.54980  0.36420  Biso   1.000  H
  H84      1.0000 0.04750  0.42400  0.12980  Biso   1.000  H
  H85      1.0000 0.00180  0.37240  0.13010  Biso   1.000  H
  H86      1.0000 0.02210  0.40210  0.08560  Biso   1.000  H
  Sr4      1.0000 0.28847  0.07998  0.67392  Biso   1.000  Sr
  Sr5      1.0000 0.20912  0.23428  0.69869  Biso   1.000  Sr
  Sr6      1.0000 0.27195  0.40045  0.64948  Biso   1.000  Sr
  C66      1.0000 0.17530  0.25760  0.93481  Biso   1.000  C
  C67      1.0000 0.12840  0.24920  0.91910  Biso   1.000  C
  C68      1.0000 0.11970  0.24450  0.87588  Biso   1.000  C
  H87      1.0000 0.08700  0.23890  0.86610  Biso   1.000  H
  C69      1.0000 0.15690  0.24760  0.84616  Biso   1.000  C
  C70      1.0000 0.20430  0.25350  0.86110  Biso   1.000  C
  H88      1.0000 0.23080  0.25440  0.84140  Biso   1.000  H
  C71      1.0000 0.21340  0.25830  0.90430  Biso   1.000  C
  H89      1.0000 0.24630  0.26210  0.91400  Biso   1.000  H
  O24      1.0000 0.08874  0.24430  0.94587  Biso   1.000  O
  H90      1.0000 0.08530  0.28140  0.95940  Biso   1.000  H
  C72      1.0000 0.14640  0.24220  0.79877  Biso   1.000  C
  O25      1.0000 0.10300  0.23242  0.78739  Biso   1.000  O
  O26      1.0000 0.18166  0.24830  0.77350  Biso   1.000  O
  C73      1.0000 0.18750  0.26480  0.98183  Biso   1.000  C
  C74      1.0000 0.17090  0.22000  0.01323  Biso   1.000  C
  C75      1.0000 0.18730  0.22470  0.05477  Biso   1.000  C
  H91      1.0000 0.17650  0.19230  0.07550  Biso   1.000  H
  C76      1.0000 0.21970  0.27680  0.06669  Biso   1.000  C
  C77      1.0000 0.23500  0.32360  0.03600  Biso   1.000  C
  H92      1.0000 0.25590  0.36040  0.04400  Biso   1.000  H
  C78      1.0000 0.22010  0.31700  0.99430  Biso   1.000  C
  H93      1.0000 0.23210  0.34830  0.97340  Biso   1.000  H
  O27      1.0000 0.13799  0.16990  0.00147  Biso   1.000  O
  H94      1.0000 0.13120  0.14540  0.02290  Biso   1.000  H
  C79      1.0000 0.23970  0.27750  0.11111  Biso   1.000  C
  O28      1.0000 0.24117  0.22236  0.13149  Biso   1.000  O
  O29      1.0000 0.25501  0.33321  0.12714  Biso   1.000  O
  C80      1.0000 0.07009  0.99510  0.80133  Biso   1.000  C
  C81      1.0000 0.08140  0.06300  0.78904  Biso   1.000  C
  C82      1.0000 0.12076  0.07750  0.76278  Biso   1.000  C
  H95      1.0000 0.12660  0.12360  0.75410  Biso   1.000  H
  C83      1.0000 0.15214  0.02540  0.74884  Biso   1.000  C
  C84      1.0000 0.14240  0.95820  0.76182  Biso   1.000  C
  H96      1.0000 0.16380  0.92220  0.75320  Biso   1.000  H
  C85      1.0000 0.10240  0.94330  0.78706  Biso   1.000  C
  H97      1.0000 0.09640  0.89690  0.79510  Biso   1.000  H
  O30      1.0000 0.05138  0.11430  0.80345  Biso   1.000  O
  H98      1.0000 0.06310  0.15260  0.79650  Biso   1.000  H
  C86      1.0000 0.19510  0.04200  0.72114  Biso   1.000  C
  O31      1.0000 0.20496  0.10458  0.71309  Biso   1.000  O
  O32      1.0000 0.22039  0.99299  0.70633  Biso   1.000  O
  C87      1.0000 0.02597  0.97720  0.82733  Biso   1.000  C
  C88      1.0000 0.03053  0.93600  0.86413  Biso   1.000  C
  C89      1.0000 0.98821  0.91530  0.88653  Biso   1.000  C
  H99      1.0000 0.99170  0.88760  0.91150  Biso   1.000  H
  C90      1.0000 0.94187  0.93410  0.87321  Biso   1.000  C
  C91      1.0000 0.93739  0.97450  0.83669  Biso   1.000  C
  H100     1.0000 0.90590  0.98740  0.82670  Biso   1.000  H
  C92      1.0000 0.97920  0.99620  0.81467  Biso   1.000  C
  H101     1.0000 0.97550  0.02490  0.79020  Biso   1.000  H
  O33      1.0000 0.07610  0.91640  0.87845  Biso   1.000  O
  H102     1.0000 0.09770  0.93230  0.86200  Biso   1.000  H
  C93      1.0000 0.89732  0.90910  0.89778  Biso   1.000  C
  O34      1.0000 0.85677  0.90636  0.87868  Biso   1.000  O
  O35      1.0000 0.90485  0.89120  0.93598  Biso   1.000  O
  C94      1.0000 0.02470  0.43280  0.74000  Biso   1.000  C
  C95      1.0000 0.05620  0.37940  0.74990  Biso   1.000  C
  C96      1.0000 0.10160  0.37290  0.72910  Biso   1.000  C
  H103     1.0000 0.12260  0.33550  0.73590  Biso   1.000  H
  C97      1.0000 0.11588  0.42070  0.69880  Biso   1.000  C
  C98      1.0000 0.08500  0.47530  0.68790  Biso   1.000  C
  H104     1.0000 0.09440  0.50800  0.66680  Biso   1.000  H
  C99      1.0000 0.03950  0.48060  0.70900  Biso   1.000  C
  H105     1.0000 0.01830  0.51760  0.70190  Biso   1.000  H
  O36      1.0000 0.04185  0.33540  0.78150  Biso   1.000  O
  H106     1.0000 0.05950  0.30000  0.78100  Biso   1.000  H
  C100     1.0000 0.16564  0.41310  0.67857  Biso   1.000  C
  O37      1.0000 0.18962  0.35833  0.68598  Biso   1.000  O
  O38      1.0000 0.18292  0.46134  0.65683  Biso   1.000  O
  C101     1.0000 0.47300  0.24830  0.74430  Biso   1.000  C
  C102     1.0000 0.44220  0.19330  0.75440  Biso   1.000  C
  C103     1.0000 0.39340  0.19520  0.74340  Biso   1.000  C
  H107     1.0000 0.37360  0.15590  0.74880  Biso   1.000  H
  C104     1.0000 0.37210  0.25310  0.72449  Biso   1.000  C
  C105     1.0000 0.40303  0.30820  0.71470  Biso   1.000  C
  H108     1.0000 0.38990  0.34820  0.70140  Biso   1.000  H
  C106     1.0000 0.45300  0.30520  0.72423  Biso   1.000  C
  H109     1.0000 0.47360  0.34280  0.71680  Biso   1.000  H
  O39      1.0000 0.46000  0.13620  0.77560  Biso   1.000  O
  H110     1.0000 0.47530  0.11120  0.75830  Biso   1.000  H
  C107     1.0000 0.31820  0.25550  0.71503  Biso   1.000  C
  O40      1.0000 0.29718  0.19733  0.71204  Biso   1.000  O
  O41      1.0000 0.29713  0.31131  0.71161  Biso   1.000  O
  O42      1.0000 0.27479  0.52191  0.61496  Biso   1.000  O
  C108     1.0000 0.31270  0.55320  0.60627  Biso   1.000  C
  H111     1.0000 0.32720  0.58010  0.62830  Biso   1.000  H
  N8       1.0000 0.33498  0.55220  0.56843  Biso   1.000  N
  C109     1.0000 0.31510  0.51100  0.53370  Biso   1.000  C
  H112     1.0000 0.34120  0.48270  0.52130  Biso   1.000  H
  H113     1.0000 0.30160  0.54130  0.51160  Biso   1.000  H
  H114     1.0000 0.28920  0.48110  0.54480  Biso   1.000  H
  C110     1.0000 0.38190  0.58960  0.56140  Biso   1.000  C
  H115     1.0000 0.38850  0.61960  0.58610  Biso   1.000  H
  H116     1.0000 0.37940  0.61760  0.53540  Biso   1.000  H
  H117     1.0000 0.40860  0.55640  0.55830  Biso   1.000  H
  O43      1.0000 0.32135  0.04500  0.74622  Biso   1.000  O
  C111     1.0000 0.33330  0.01580  0.77390  Biso   1.000  C
  H118     1.0000 0.35980  0.04340  0.78360  Biso   1.000  H
  N9       1.0000 0.33410  0.96980  0.80030  Biso   1.000  N
  C112     1.0000 0.37160  0.94700  0.83600  Biso   1.000  C
  H119     1.0000 0.35850  0.90730  0.85160  Biso   1.000  H
  H120     1.0000 0.37700  0.98510  0.85600  Biso   1.000  H
  H121     1.0000 0.40280  0.93430  0.82250  Biso   1.000  H
  C113     1.0000 0.28210  0.93830  0.79950  Biso   1.000  C
  H122     1.0000 0.25780  0.97460  0.80430  Biso   1.000  H
  H123     1.0000 0.27930  0.90350  0.82210  Biso   1.000  H
  H124     1.0000 0.27630  0.91680  0.77150  Biso   1.000  H
  O44      1.0000 0.13370  0.21440  0.65780  Biso   1.000  O
  C114     1.0000 0.09080  0.23010  0.66440  Biso   1.000  C
  H125     1.0000 0.07720  0.21310  0.69040  Biso   1.000  H
  C115     1.0000 0.02350  0.30870  0.63120  Biso   1.000  C
  H126     1.0000 0.03640  0.35170  0.61930  Biso   1.000  H
  H127     1.0000 0.00420  0.31880  0.65700  Biso   1.000  H
  H128     1.0000 0.00260  0.28610  0.60990  Biso   1.000  H
  C116     1.0000 0.10240  0.28760  0.60980  Biso   1.000  C
  H129     1.0000 0.13110  0.25770  0.61260  Biso   1.000  H
  H130     1.0000 0.11180  0.33530  0.61570  Biso   1.000  H
  H131     1.0000 0.08940  0.28420  0.58060  Biso   1.000  H
  O45      1.0000 0.22998  0.39200  0.57443  Biso   1.000  O
  C117     1.0000 0.20360  0.34500  0.56110  Biso   1.000  C
  H132     1.0000 0.18940  0.31890  0.58370  Biso   1.000  H
  N10      1.0000 0.19090  0.32330  0.52410  Biso   1.000  N
  C118     1.0000 0.21310  0.36350  0.48710  Biso   1.000  C
  H133     1.0000 0.23680  0.39680  0.49840  Biso   1.000  H
  H134     1.0000 0.18710  0.38800  0.47170  Biso   1.000  H
  H135     1.0000 0.22960  0.33180  0.46750  Biso   1.000  H
  C119     1.0000 0.15810  0.27300  0.51380  Biso   1.000  C
  H136     1.0000 0.17160  0.24420  0.49090  Biso   1.000  H
  H137     1.0000 0.12750  0.29410  0.50410  Biso   1.000  H
  H138     1.0000 0.15160  0.24460  0.53920  Biso   1.000  H
  O46      1.0000 0.36350  0.11610  0.63340  Biso   1.000  O
  N11      1.0000 0.43500  0.17280  0.61090  Biso   1.000  N
  N12      1.0000 0.06290  0.26480  0.64200  Biso   1.000  N
  C120     1.0000 0.38950  0.16800  0.62850  Biso   1.000  C
  H139     1.0000 0.37570  0.20990  0.63850  Biso   1.000  H
  C121     1.0000 0.45740  0.24080  0.60610  Biso   1.000  C
  H140     1.0000 0.46540  0.24860  0.57580  Biso   1.000  H
  H141     1.0000 0.48740  0.24300  0.62330  Biso   1.000  H
  H142     1.0000 0.43440  0.27620  0.61590  Biso   1.000  H
  C122     1.0000 0.46870  0.11360  0.61440  Biso   1.000  C
  H143     1.0000 0.49990  0.12500  0.60050  Biso   1.000  H
  H144     1.0000 0.45420  0.07350  0.60030  Biso   1.000  H
  H145     1.0000 0.47450  0.10310  0.64470  Biso   1.000  H
  C123     1.0000 0.10860  0.25440  0.63830  Biso   1.000  C
  H146     1.0000 0.12500  0.28170  0.61750  Biso   1.000  H
  C124     1.0000 0.04050  0.21370  0.68030  Biso   1.000  C
  H147     1.0000 0.06670  0.18410  0.69140  Biso   1.000  H
  H148     1.0000 0.01430  0.18510  0.66830  Biso   1.000  H
  H149     1.0000 0.02740  0.24190  0.70370  Biso   1.000  H
  C125     1.0000 0.20290  0.43230  0.55600  Biso   1.000  C
  H150     1.0000 0.19830  0.47610  0.56890  Biso   1.000  H
  N13      1.0000 0.17880  0.42030  0.51900  Biso   1.000  N
  C126     1.0000 0.17910  0.35330  0.50210  Biso   1.000  C
  H151     1.0000 0.19110  0.35440  0.47250  Biso   1.000  H
  H152     1.0000 0.14570  0.33470  0.50260  Biso   1.000  H
  H153     1.0000 0.20050  0.32410  0.51960  Biso   1.000  H
  C127     1.0000 0.14680  0.48420  0.50870  Biso   1.000  C
  H154     1.0000 0.12810  0.47590  0.48240  Biso   1.000  H
  H155     1.0000 0.16800  0.52450  0.50470  Biso   1.000  H
  H156     1.0000 0.12420  0.49270  0.53260  Biso   1.000  H
  H157     1.0000 0.15210  0.51950  0.53070  Biso   1.000  H
  H158     1.0000 0.11220  0.47090  0.50840  Biso   1.000  H
  H159     1.0000 0.15600  0.50270  0.48060  Biso   1.000  H
  C128     1.0000 0.44480  0.17520  0.63300  Biso   1.000  C
  H160     1.0000 0.42160  0.17090  0.65680  Biso   1.000  H
  H161     1.0000 0.46390  0.21760  0.63650  Biso   1.000  H
  H162     1.0000 0.46700  0.13550  0.63290  Biso   1.000  H
  C129     1.0000 0.37960  0.13650  0.59870  Biso   1.000  C
  H163     1.0000 0.36320  0.12230  0.57340  Biso   1.000  H
  N14      1.0000 0.41930  0.17770  0.59440  Biso   1.000  N
  C130     1.0000 0.44340  0.20660  0.55740  Biso   1.000  C
  H164     1.0000 0.47790  0.19230  0.55710  Biso   1.000  H
  H165     1.0000 0.44160  0.25690  0.55860  Biso   1.000  H
  H166     1.0000 0.42730  0.19020  0.53120  Biso   1.000  H
  H167     1.0000 0.40040  0.97720  0.83520  Biso   1.000  H
  H168     1.0000 0.38180  0.89940  0.83080  Biso   1.000  H
  H169     1.0000 0.35610  0.95020  0.86420  Biso   1.000  H
  H170     1.0000 0.45250  0.07600  0.62980  Biso   1.000  H
  H171     1.0000 0.49820  0.12760  0.63010  Biso   1.000  H
  H172     1.0000 0.47790  0.09790  0.58560  Biso   1.000  H
  Sr7      1.0000 0.78847  0.42002  0.32608  Biso   1.000  Sr
  Sr8      1.0000 0.70912  0.26572  0.30131  Biso   1.000  Sr
  Sr9      1.0000 0.77195  0.09955  0.35052  Biso   1.000  Sr
  C131     1.0000 0.67530  0.24240  0.06519  Biso   1.000  C
  C132     1.0000 0.62840  0.25080  0.08090  Biso   1.000  C
  C133     1.0000 0.61970  0.25550  0.12412  Biso   1.000  C
  H173     1.0000 0.58700  0.26110  0.13390  Biso   1.000  H
  C134     1.0000 0.65690  0.25240  0.15384  Biso   1.000  C
  C135     1.0000 0.70430  0.24650  0.13890  Biso   1.000  C
  H174     1.0000 0.73080  0.24560  0.15860  Biso   1.000  H
  C136     1.0000 0.71340  0.24170  0.09570  Biso   1.000  C
  H175     1.0000 0.74630  0.23790  0.08600  Biso   1.000  H
  O47      1.0000 0.58874  0.25570  0.05413  Biso   1.000  O
  H176     1.0000 0.58530  0.21860  0.04060  Biso   1.000  H
  C137     1.0000 0.64640  0.25780  0.20123  Biso   1.000  C
  O48      1.0000 0.60300  0.26758  0.21261  Biso   1.000  O
  O49      1.0000 0.68166  0.25170  0.22650  Biso   1.000  O
  C138     1.0000 0.68750  0.23520  0.01817  Biso   1.000  C
  C139     1.0000 0.67090  0.28000  0.98677  Biso   1.000  C
  C140     1.0000 0.68730  0.27530  0.94523  Biso   1.000  C
  H177     1.0000 0.67650  0.30770  0.92450  Biso   1.000  H
  C141     1.0000 0.71970  0.22320  0.93331  Biso   1.000  C
  C142     1.0000 0.73500  0.17640  0.96400  Biso   1.000  C
  H178     1.0000 0.75590  0.13960  0.95600  Biso   1.000  H
  C143     1.0000 0.72010  0.18300  0.00570  Biso   1.000  C
  H179     1.0000 0.73210  0.15170  0.02660  Biso   1.000  H
  O50      1.0000 0.63799  0.33010  0.99853  Biso   1.000  O
  H180     1.0000 0.63120  0.35460  0.97710  Biso   1.000  H
  C144     1.0000 0.73970  0.22250  0.88889  Biso   1.000  C
  O51      1.0000 0.74117  0.27764  0.86851  Biso   1.000  O
  O52      1.0000 0.75501  0.16679  0.87286  Biso   1.000  O
  C145     1.0000 0.57009  0.50490  0.19867  Biso   1.000  C
  C146     1.0000 0.58140  0.43700  0.21096  Biso   1.000  C
  C147     1.0000 0.62076  0.42250  0.23722  Biso   1.000  C
  H181     1.0000 0.62660  0.37640  0.24590  Biso   1.000  H
  C148     1.0000 0.65214  0.47460  0.25116  Biso   1.000  C
  C149     1.0000 0.64240  0.54180  0.23818  Biso   1.000  C
  H182     1.0000 0.66380  0.57780  0.24680  Biso   1.000  H
  C150     1.0000 0.60240  0.55670  0.21294  Biso   1.000  C
  H183     1.0000 0.59640  0.60310  0.20490  Biso   1.000  H
  O53      1.0000 0.55138  0.38570  0.19655  Biso   1.000  O
  H184     1.0000 0.56310  0.34740  0.20350  Biso   1.000  H
  C151     1.0000 0.69510  0.45800  0.27886  Biso   1.000  C
  O54      1.0000 0.70496  0.39542  0.28691  Biso   1.000  O
  O55      1.0000 0.72039  0.50701  0.29367  Biso   1.000  O
  C152     1.0000 0.52597  0.52280  0.17267  Biso   1.000  C
  C153     1.0000 0.53053  0.56400  0.13587  Biso   1.000  C
  C154     1.0000 0.48821  0.58470  0.11347  Biso   1.000  C
  H185     1.0000 0.49170  0.61240  0.08850  Biso   1.000  H
  C155     1.0000 0.44187  0.56590  0.12679  Biso   1.000  C
  C156     1.0000 0.43739  0.52550  0.16331  Biso   1.000  C
  H186     1.0000 0.40590  0.51260  0.17330  Biso   1.000  H
  C157     1.0000 0.47920  0.50380  0.18533  Biso   1.000  C
  H187     1.0000 0.47550  0.47510  0.20980  Biso   1.000  H
  O56      1.0000 0.57610  0.58360  0.12155  Biso   1.000  O
  H188     1.0000 0.59770  0.56770  0.13800  Biso   1.000  H
  C158     1.0000 0.39732  0.59090  0.10222  Biso   1.000  C
  O57      1.0000 0.35677  0.59364  0.12132  Biso   1.000  O
  O58      1.0000 0.40485  0.60880  0.06402  Biso   1.000  O
  C159     1.0000 0.52470  0.06720  0.26000  Biso   1.000  C
  C160     1.0000 0.55620  0.12060  0.25010  Biso   1.000  C
  C161     1.0000 0.60160  0.12710  0.27090  Biso   1.000  C
  H189     1.0000 0.62260  0.16450  0.26410  Biso   1.000  H
  C162     1.0000 0.61588  0.07930  0.30120  Biso   1.000  C
  C163     1.0000 0.58500  0.02470  0.31210  Biso   1.000  C
  H190     1.0000 0.59440  0.99200  0.33320  Biso   1.000  H
  C164     1.0000 0.53950  0.01940  0.29100  Biso   1.000  C
  H191     1.0000 0.51830  0.98240  0.29810  Biso   1.000  H
  O59      1.0000 0.54185  0.16460  0.21850  Biso   1.000  O
  H192     1.0000 0.55950  0.20000  0.21900  Biso   1.000  H
  C165     1.0000 0.66564  0.08690  0.32143  Biso   1.000  C
  O60      1.0000 0.68962  0.14167  0.31402  Biso   1.000  O
  O61      1.0000 0.68292  0.03866  0.34317  Biso   1.000  O
  C166     1.0000 0.97300  0.25170  0.25570  Biso   1.000  C
  C167     1.0000 0.94220  0.30670  0.24560  Biso   1.000  C
  C168     1.0000 0.89340  0.30480  0.25660  Biso   1.000  C
  H193     1.0000 0.87360  0.34410  0.25120  Biso   1.000  H
  C169     1.0000 0.87210  0.24690  0.27551  Biso   1.000  C
  C170     1.0000 0.90303  0.19180  0.28530  Biso   1.000  C
  H194     1.0000 0.88990  0.15180  0.29860  Biso   1.000  H
  C171     1.0000 0.95300  0.19480  0.27577  Biso   1.000  C
  H195     1.0000 0.97360  0.15720  0.28320  Biso   1.000  H
  O62      1.0000 0.96000  0.36380  0.22440  Biso   1.000  O
  H196     1.0000 0.97530  0.38880  0.24170  Biso   1.000  H
  C172     1.0000 0.81820  0.24450  0.28497  Biso   1.000  C
  O63      1.0000 0.79718  0.30267  0.28796  Biso   1.000  O
  O64      1.0000 0.79713  0.18869  0.28839  Biso   1.000  O
  O65      1.0000 0.77479  0.97809  0.38504  Biso   1.000  O
  C173     1.0000 0.81270  0.94680  0.39373  Biso   1.000  C
  H197     1.0000 0.82720  0.91990  0.37170  Biso   1.000  H
  N15      1.0000 0.83498  0.94780  0.43157  Biso   1.000  N
  C174     1.0000 0.81510  0.98900  0.46630  Biso   1.000  C
  H198     1.0000 0.84120  0.01730  0.47870  Biso   1.000  H
  H199     1.0000 0.80160  0.95870  0.48840  Biso   1.000  H
  H200     1.0000 0.78920  0.01890  0.45520  Biso   1.000  H
  C175     1.0000 0.88190  0.91040  0.43860  Biso   1.000  C
  H201     1.0000 0.88850  0.88040  0.41390  Biso   1.000  H
  H202     1.0000 0.87940  0.88240  0.46460  Biso   1.000  H
  H203     1.0000 0.90860  0.94360  0.44170  Biso   1.000  H
  O66      1.0000 0.82135  0.45500  0.25378  Biso   1.000  O
  C176     1.0000 0.83330  0.48420  0.22610  Biso   1.000  C
  H204     1.0000 0.85980  0.45660  0.21640  Biso   1.000  H
  N16      1.0000 0.83410  0.53020  0.19970  Biso   1.000  N
  C177     1.0000 0.87160  0.55300  0.16400  Biso   1.000  C
  H205     1.0000 0.85850  0.59270  0.14840  Biso   1.000  H
  H206     1.0000 0.87700  0.51490  0.14400  Biso   1.000  H
  H207     1.0000 0.90280  0.56570  0.17750  Biso   1.000  H
  C178     1.0000 0.78210  0.56170  0.20050  Biso   1.000  C
  H208     1.0000 0.75780  0.52540  0.19570  Biso   1.000  H
  H209     1.0000 0.77930  0.59650  0.17790  Biso   1.000  H
  H210     1.0000 0.77630  0.58320  0.22850  Biso   1.000  H
  O67      1.0000 0.63370  0.28560  0.34220  Biso   1.000  O
  C179     1.0000 0.59080  0.26990  0.33560  Biso   1.000  C
  H211     1.0000 0.57720  0.28690  0.30960  Biso   1.000  H
  C180     1.0000 0.52350  0.19130  0.36880  Biso   1.000  C
  H212     1.0000 0.53640  0.14830  0.38070  Biso   1.000  H
  H213     1.0000 0.50420  0.18120  0.34300  Biso   1.000  H
  H214     1.0000 0.50260  0.21390  0.39010  Biso   1.000  H
  C181     1.0000 0.60240  0.21240  0.39020  Biso   1.000  C
  H215     1.0000 0.63110  0.24230  0.38740  Biso   1.000  H
  H216     1.0000 0.61180  0.16470  0.38430  Biso   1.000  H
  H217     1.0000 0.58940  0.21580  0.41940  Biso   1.000  H
  O68      1.0000 0.72998  0.10800  0.42557  Biso   1.000  O
  C182     1.0000 0.70360  0.15500  0.43890  Biso   1.000  C
  H218     1.0000 0.68940  0.18110  0.41630  Biso   1.000  H
  N17      1.0000 0.69090  0.17670  0.47590  Biso   1.000  N
  C183     1.0000 0.71310  0.13650  0.51290  Biso   1.000  C
  H219     1.0000 0.73680  0.10320  0.50160  Biso   1.000  H
  H220     1.0000 0.68710  0.11200  0.52830  Biso   1.000  H
  H221     1.0000 0.72960  0.16820  0.53250  Biso   1.000  H
  C184     1.0000 0.65810  0.22700  0.48620  Biso   1.000  C
  H222     1.0000 0.67160  0.25580  0.50910  Biso   1.000  H
  H223     1.0000 0.62750  0.20590  0.49590  Biso   1.000  H
  H224     1.0000 0.65160  0.25540  0.46080  Biso   1.000  H
  O69      1.0000 0.86350  0.38390  0.36660  Biso   1.000  O
  N18      1.0000 0.93500  0.32720  0.38910  Biso   1.000  N
  N19      1.0000 0.56290  0.23520  0.35800  Biso   1.000  N
  C185     1.0000 0.88950  0.33200  0.37150  Biso   1.000  C
  H225     1.0000 0.87570  0.29010  0.36150  Biso   1.000  H
  C186     1.0000 0.95740  0.25920  0.39390  Biso   1.000  C
  H226     1.0000 0.96540  0.25140  0.42420  Biso   1.000  H
  H227     1.0000 0.98740  0.25700  0.37670  Biso   1.000  H
  H228     1.0000 0.93440  0.22380  0.38410  Biso   1.000  H
  C187     1.0000 0.96870  0.38640  0.38560  Biso   1.000  C
  H229     1.0000 0.99990  0.37500  0.39950  Biso   1.000  H
  H230     1.0000 0.95420  0.42650  0.39970  Biso   1.000  H
  H231     1.0000 0.97450  0.39690  0.35530  Biso   1.000  H
  C188     1.0000 0.60860  0.24560  0.36170  Biso   1.000  C
  H232     1.0000 0.62500  0.21830  0.38250  Biso   1.000  H
  C189     1.0000 0.54050  0.28630  0.31970  Biso   1.000  C
  H233     1.0000 0.56670  0.31590  0.30860  Biso   1.000  H
  H234     1.0000 0.51430  0.31490  0.33170  Biso   1.000  H
  H235     1.0000 0.52740  0.25810  0.29630  Biso   1.000  H
  C190     1.0000 0.70290  0.06770  0.44400  Biso   1.000  C
  H236     1.0000 0.69830  0.02390  0.43110  Biso   1.000  H
  N20      1.0000 0.67880  0.07970  0.48100  Biso   1.000  N
  C191     1.0000 0.67910  0.14670  0.49790  Biso   1.000  C
  H237     1.0000 0.69110  0.14560  0.52750  Biso   1.000  H
  H238     1.0000 0.64570  0.16530  0.49740  Biso   1.000  H
  H239     1.0000 0.70050  0.17590  0.48040  Biso   1.000  H
  C192     1.0000 0.64680  0.01580  0.49130  Biso   1.000  C
  H240     1.0000 0.62810  0.02410  0.51760  Biso   1.000  H
  H241     1.0000 0.66800  0.97550  0.49530  Biso   1.000  H
  H242     1.0000 0.62420  0.00730  0.46740  Biso   1.000  H
  H243     1.0000 0.65210  0.98050  0.46930  Biso   1.000  H
  H244     1.0000 0.61220  0.02910  0.49160  Biso   1.000  H
  H245     1.0000 0.65600  0.99730  0.51940  Biso   1.000  H
  C193     1.0000 0.94480  0.32480  0.36700  Biso   1.000  C
  H246     1.0000 0.92160  0.32910  0.34320  Biso   1.000  H
  H247     1.0000 0.96390  0.28240  0.36350  Biso   1.000  H
  H248     1.0000 0.96700  0.36450  0.36710  Biso   1.000  H
  C194     1.0000 0.87960  0.36350  0.40130  Biso   1.000  C
  H249     1.0000 0.86320  0.37770  0.42660  Biso   1.000  H
  N21      1.0000 0.91930  0.32230  0.40560  Biso   1.000  N
  C195     1.0000 0.94340  0.29340  0.44260  Biso   1.000  C
  H250     1.0000 0.97790  0.30770  0.44290  Biso   1.000  H
  H251     1.0000 0.94160  0.24310  0.44140  Biso   1.000  H
  H252     1.0000 0.92730  0.30980  0.46880  Biso   1.000  H
  H253     1.0000 0.90040  0.52280  0.16480  Biso   1.000  H
  H254     1.0000 0.88180  0.60060  0.16920  Biso   1.000  H
  H255     1.0000 0.85610  0.54980  0.13580  Biso   1.000  H
  H256     1.0000 0.95250  0.42400  0.37020  Biso   1.000  H
  H257     1.0000 0.99820  0.37240  0.36990  Biso   1.000  H
  H258     1.0000 0.97790  0.40210  0.41440  Biso   1.000  H
  Sr10     1.0000 0.71153  0.07998  0.82608  Biso   1.000  Sr
  Sr11     1.0000 0.79088  0.23428  0.80131  Biso   1.000  Sr
  Sr12     1.0000 0.72805  0.40045  0.85052  Biso   1.000  Sr
  C196     1.0000 0.82470  0.25760  0.56519  Biso   1.000  C
  C197     1.0000 0.87160  0.24920  0.58090  Biso   1.000  C
  C198     1.0000 0.88030  0.24450  0.62412  Biso   1.000  C
  H259     1.0000 0.91300  0.23890  0.63390  Biso   1.000  H
  C199     1.0000 0.84310  0.24760  0.65384  Biso   1.000  C
  C200     1.0000 0.79570  0.25350  0.63890  Biso   1.000  C
  H260     1.0000 0.76920  0.25440  0.65860  Biso   1.000  H
  C201     1.0000 0.78660  0.25830  0.59570  Biso   1.000  C
  H261     1.0000 0.75370  0.26210  0.58600  Biso   1.000  H
  O70      1.0000 0.91126  0.24430  0.55413  Biso   1.000  O
  H262     1.0000 0.91470  0.28140  0.54060  Biso   1.000  H
  C202     1.0000 0.85360  0.24220  0.70123  Biso   1.000  C
  O71      1.0000 0.89700  0.23242  0.71261  Biso   1.000  O
  O72      1.0000 0.81834  0.24830  0.72650  Biso   1.000  O
  C203     1.0000 0.81250  0.26480  0.51817  Biso   1.000  C
  C204     1.0000 0.82910  0.22000  0.48677  Biso   1.000  C
  C205     1.0000 0.81270  0.22470  0.44523  Biso   1.000  C
  H263     1.0000 0.82350  0.19230  0.42450  Biso   1.000  H
  C206     1.0000 0.78030  0.27680  0.43331  Biso   1.000  C
  C207     1.0000 0.76500  0.32360  0.46400  Biso   1.000  C
  H264     1.0000 0.74410  0.36040  0.45600  Biso   1.000  H
  C208     1.0000 0.77990  0.31700  0.50570  Biso   1.000  C
  H265     1.0000 0.76790  0.34830  0.52660  Biso   1.000  H
  O73      1.0000 0.86201  0.16990  0.49853  Biso   1.000  O
  H266     1.0000 0.86880  0.14540  0.47710  Biso   1.000  H
  C209     1.0000 0.76030  0.27750  0.38889  Biso   1.000  C
  O74      1.0000 0.75883  0.22236  0.36851  Biso   1.000  O
  O75      1.0000 0.74499  0.33321  0.37286  Biso   1.000  O
  C210     1.0000 0.92991  0.99510  0.69867  Biso   1.000  C
  C211     1.0000 0.91860  0.06300  0.71096  Biso   1.000  C
  C212     1.0000 0.87924  0.07750  0.73722  Biso   1.000  C
  H267     1.0000 0.87340  0.12360  0.74590  Biso   1.000  H
  C213     1.0000 0.84786  0.02540  0.75116  Biso   1.000  C
  C214     1.0000 0.85760  0.95820  0.73818  Biso   1.000  C
  H268     1.0000 0.83620  0.92220  0.74680  Biso   1.000  H
  C215     1.0000 0.89760  0.94330  0.71294  Biso   1.000  C
  H269     1.0000 0.90360  0.89690  0.70490  Biso   1.000  H
  O76      1.0000 0.94862  0.11430  0.69655  Biso   1.000  O
  H270     1.0000 0.93690  0.15260  0.70350  Biso   1.000  H
  C216     1.0000 0.80490  0.04200  0.77886  Biso   1.000  C
  O77      1.0000 0.79504  0.10458  0.78691  Biso   1.000  O
  O78      1.0000 0.77961  0.99299  0.79367  Biso   1.000  O
  C217     1.0000 0.97403  0.97720  0.67267  Biso   1.000  C
  C218     1.0000 0.96947  0.93600  0.63587  Biso   1.000  C
  C219     1.0000 0.01179  0.91530  0.61347  Biso   1.000  C
  H271     1.0000 0.00830  0.88760  0.58850  Biso   1.000  H
  C220     1.0000 0.05813  0.93410  0.62679  Biso   1.000  C
  C221     1.0000 0.06261  0.97450  0.66331  Biso   1.000  C
  H272     1.0000 0.09410  0.98740  0.67330  Biso   1.000  H
  C222     1.0000 0.02080  0.99620  0.68533  Biso   1.000  C
  H273     1.0000 0.02450  0.02490  0.70980  Biso   1.000  H
  O79      1.0000 0.92390  0.91640  0.62155  Biso   1.000  O
  H274     1.0000 0.90230  0.93230  0.63800  Biso   1.000  H
  C223     1.0000 0.10268  0.90910  0.60222  Biso   1.000  C
  O80      1.0000 0.14323  0.90636  0.62132  Biso   1.000  O
  O81      1.0000 0.09515  0.89120  0.56402  Biso   1.000  O
  C224     1.0000 0.97530  0.43280  0.76000  Biso   1.000  C
  C225     1.0000 0.94380  0.37940  0.75010  Biso   1.000  C
  C226     1.0000 0.89840  0.37290  0.77090  Biso   1.000  C
  H275     1.0000 0.87740  0.33550  0.76410  Biso   1.000  H
  C227     1.0000 0.88412  0.42070  0.80120  Biso   1.000  C
  C228     1.0000 0.91500  0.47530  0.81210  Biso   1.000  C
  H276     1.0000 0.90560  0.50800  0.83320  Biso   1.000  H
  C229     1.0000 0.96050  0.48060  0.79100  Biso   1.000  C
  H277     1.0000 0.98170  0.51760  0.79810  Biso   1.000  H
  O82      1.0000 0.95815  0.33540  0.71850  Biso   1.000  O
  H278     1.0000 0.94050  0.30000  0.71900  Biso   1.000  H
  C230     1.0000 0.83436  0.41310  0.82143  Biso   1.000  C
  O83      1.0000 0.81038  0.35833  0.81402  Biso   1.000  O
  O84      1.0000 0.81708  0.46134  0.84317  Biso   1.000  O
  C231     1.0000 0.52700  0.24830  0.75570  Biso   1.000  C
  C232     1.0000 0.55780  0.19330  0.74560  Biso   1.000  C
  C233     1.0000 0.60660  0.19520  0.75660  Biso   1.000  C
  H279     1.0000 0.62640  0.15590  0.75120  Biso   1.000  H
  C234     1.0000 0.62790  0.25310  0.77551  Biso   1.000  C
  C235     1.0000 0.59697  0.30820  0.78530  Biso   1.000  C
  H280     1.0000 0.61010  0.34820  0.79860  Biso   1.000  H
  C236     1.0000 0.54700  0.30520  0.77577  Biso   1.000  C
  H281     1.0000 0.52640  0.34280  0.78320  Biso   1.000  H
  O85      1.0000 0.54000  0.13620  0.72440  Biso   1.000  O
  H282     1.0000 0.52470  0.11120  0.74170  Biso   1.000  H
  C237     1.0000 0.68180  0.25550  0.78497  Biso   1.000  C
  O86      1.0000 0.70282  0.19733  0.78796  Biso   1.000  O
  O87      1.0000 0.70287  0.31131  0.78839  Biso   1.000  O
  O88      1.0000 0.72521  0.52191  0.88504  Biso   1.000  O
  C238     1.0000 0.68730  0.55320  0.89373  Biso   1.000  C
  H283     1.0000 0.67280  0.58010  0.87170  Biso   1.000  H
  N22      1.0000 0.66502  0.55220  0.93157  Biso   1.000  N
  C239     1.0000 0.68490  0.51100  0.96630  Biso   1.000  C
  H284     1.0000 0.65880  0.48270  0.97870  Biso   1.000  H
  H285     1.0000 0.69840  0.54130  0.98840  Biso   1.000  H
  H286     1.0000 0.71080  0.48110  0.95520  Biso   1.000  H
  C240     1.0000 0.61810  0.58960  0.93860  Biso   1.000  C
  H287     1.0000 0.61150  0.61960  0.91390  Biso   1.000  H
  H288     1.0000 0.62060  0.61760  0.96460  Biso   1.000  H
  H289     1.0000 0.59140  0.55640  0.94170  Biso   1.000  H
  O89      1.0000 0.67865  0.04500  0.75378  Biso   1.000  O
  C241     1.0000 0.66670  0.01580  0.72610  Biso   1.000  C
  H290     1.0000 0.64020  0.04340  0.71640  Biso   1.000  H
  N23      1.0000 0.66590  0.96980  0.69970  Biso   1.000  N
  C242     1.0000 0.62840  0.94700  0.66400  Biso   1.000  C
  H291     1.0000 0.64150  0.90730  0.64840  Biso   1.000  H
  H292     1.0000 0.62300  0.98510  0.64400  Biso   1.000  H
  H293     1.0000 0.59720  0.93430  0.67750  Biso   1.000  H
  C243     1.0000 0.71790  0.93830  0.70050  Biso   1.000  C
  H294     1.0000 0.74220  0.97460  0.69570  Biso   1.000  H
  H295     1.0000 0.72070  0.90350  0.67790  Biso   1.000  H
  H296     1.0000 0.72370  0.91680  0.72850  Biso   1.000  H
  O90      1.0000 0.86630  0.21440  0.84220  Biso   1.000  O
  C244     1.0000 0.90920  0.23010  0.83560  Biso   1.000  C
  H297     1.0000 0.92280  0.21310  0.80960  Biso   1.000  H
  C245     1.0000 0.97650  0.30870  0.86880  Biso   1.000  C
  H298     1.0000 0.96360  0.35170  0.88070  Biso   1.000  H
  H299     1.0000 0.99580  0.31880  0.84300  Biso   1.000  H
  H300     1.0000 0.99740  0.28610  0.89010  Biso   1.000  H
  C246     1.0000 0.89760  0.28760  0.89020  Biso   1.000  C
  H301     1.0000 0.86890  0.25770  0.88740  Biso   1.000  H
  H302     1.0000 0.88820  0.33530  0.88430  Biso   1.000  H
  H303     1.0000 0.91060  0.28420  0.91940  Biso   1.000  H
  O91      1.0000 0.77002  0.39200  0.92557  Biso   1.000  O
  C247     1.0000 0.79640  0.34500  0.93890  Biso   1.000  C
  H304     1.0000 0.81060  0.31890  0.91630  Biso   1.000  H
  N24      1.0000 0.80910  0.32330  0.97590  Biso   1.000  N
  C248     1.0000 0.78690  0.36350  0.01290  Biso   1.000  C
  H305     1.0000 0.76320  0.39680  0.00160  Biso   1.000  H
  H306     1.0000 0.81290  0.38800  0.02830  Biso   1.000  H
  H307     1.0000 0.77040  0.33180  0.03250  Biso   1.000  H
  C249     1.0000 0.84190  0.27300  0.98620  Biso   1.000  C
  H308     1.0000 0.82840  0.24420  0.00910  Biso   1.000  H
  H309     1.0000 0.87250  0.29410  0.99590  Biso   1.000  H
  H310     1.0000 0.84840  0.24460  0.96080  Biso   1.000  H
  O92      1.0000 0.63650  0.11610  0.86660  Biso   1.000  O
  N25      1.0000 0.56500  0.17280  0.88910  Biso   1.000  N
  N26      1.0000 0.93710  0.26480  0.85800  Biso   1.000  N
  C250     1.0000 0.61050  0.16800  0.87150  Biso   1.000  C
  H311     1.0000 0.62430  0.20990  0.86150  Biso   1.000  H
  C251     1.0000 0.54260  0.24080  0.89390  Biso   1.000  C
  H312     1.0000 0.53460  0.24860  0.92420  Biso   1.000  H
  H313     1.0000 0.51260  0.24300  0.87670  Biso   1.000  H
  H314     1.0000 0.56560  0.27620  0.88410  Biso   1.000  H
  C252     1.0000 0.53130  0.11360  0.88560  Biso   1.000  C
  H315     1.0000 0.50010  0.12500  0.89950  Biso   1.000  H
  H316     1.0000 0.54580  0.07350  0.89970  Biso   1.000  H
  H317     1.0000 0.52550  0.10310  0.85530  Biso   1.000  H
  C253     1.0000 0.89140  0.25440  0.86170  Biso   1.000  C
  H318     1.0000 0.87500  0.28170  0.88250  Biso   1.000  H
  C254     1.0000 0.95950  0.21370  0.81970  Biso   1.000  C
  H319     1.0000 0.93330  0.18410  0.80860  Biso   1.000  H
  H320     1.0000 0.98570  0.18510  0.83170  Biso   1.000  H
  H321     1.0000 0.97260  0.24190  0.79630  Biso   1.000  H
  C255     1.0000 0.79710  0.43230  0.94400  Biso   1.000  C
  H322     1.0000 0.80170  0.47610  0.93110  Biso   1.000  H
  N27      1.0000 0.82120  0.42030  0.98100  Biso   1.000  N
  C256     1.0000 0.82090  0.35330  0.99790  Biso   1.000  C
  H323     1.0000 0.80890  0.35440  0.02750  Biso   1.000  H
  H324     1.0000 0.85430  0.33470  0.99740  Biso   1.000  H
  H325     1.0000 0.79950  0.32410  0.98040  Biso   1.000  H
  C257     1.0000 0.85320  0.48420  0.99130  Biso   1.000  C
  H326     1.0000 0.87190  0.47590  0.01760  Biso   1.000  H
  H327     1.0000 0.83200  0.52450  0.99530  Biso   1.000  H
  H328     1.0000 0.87580  0.49270  0.96740  Biso   1.000  H
  H329     1.0000 0.84790  0.51950  0.96930  Biso   1.000  H
  H330     1.0000 0.88780  0.47090  0.99160  Biso   1.000  H
  H331     1.0000 0.84400  0.50270  0.01940  Biso   1.000  H
  C258     1.0000 0.55520  0.17520  0.86700  Biso   1.000  C
  H332     1.0000 0.57840  0.17090  0.84320  Biso   1.000  H
  H333     1.0000 0.53610  0.21760  0.86350  Biso   1.000  H
  H334     1.0000 0.53300  0.13550  0.86710  Biso   1.000  H
  C259     1.0000 0.62040  0.13650  0.90130  Biso   1.000  C
  H335     1.0000 0.63680  0.12230  0.92660  Biso   1.000  H
  N28      1.0000 0.58070  0.17770  0.90560  Biso   1.000  N
  C260     1.0000 0.55660  0.20660  0.94260  Biso   1.000  C
  H336     1.0000 0.52210  0.19230  0.94290  Biso   1.000  H
  H337     1.0000 0.55840  0.25690  0.94140  Biso   1.000  H
  H338     1.0000 0.57270  0.19020  0.96880  Biso   1.000  H
  H339     1.0000 0.59960  0.97720  0.66480  Biso   1.000  H
  H340     1.0000 0.61820  0.89940  0.66920  Biso   1.000  H
  H341     1.0000 0.64390  0.95020  0.63580  Biso   1.000  H
  H342     1.0000 0.54750  0.07600  0.87020  Biso   1.000  H
  H343     1.0000 0.50180  0.12760  0.86990  Biso   1.000  H
  H344     1.0000 0.52210  0.09790  0.91440  Biso   1.000  H
  Sr13     1.0000 0.78847  0.57998  0.82608  Biso   1.000  Sr
  Sr14     1.0000 0.70912  0.73428  0.80131  Biso   1.000  Sr
  Sr15     1.0000 0.77195  0.90045  0.85052  Biso   1.000  Sr
  C261     1.0000 0.67530  0.75760  0.56519  Biso   1.000  C
  C262     1.0000 0.62840  0.74920  0.58090  Biso   1.000  C
  C263     1.0000 0.61970  0.74450  0.62412  Biso   1.000  C
  H345     1.0000 0.58700  0.73890  0.63390  Biso   1.000  H
  C264     1.0000 0.65690  0.74760  0.65384  Biso   1.000  C
  C265     1.0000 0.70430  0.75350  0.63890  Biso   1.000  C
  H346     1.0000 0.73080  0.75440  0.65860  Biso   1.000  H
  C266     1.0000 0.71340  0.75830  0.59570  Biso   1.000  C
  H347     1.0000 0.74630  0.76210  0.58600  Biso   1.000  H
  O93      1.0000 0.58874  0.74430  0.55413  Biso   1.000  O
  H348     1.0000 0.58530  0.78140  0.54060  Biso   1.000  H
  C267     1.0000 0.64640  0.74220  0.70123  Biso   1.000  C
  O94      1.0000 0.60300  0.73242  0.71261  Biso   1.000  O
  O95      1.0000 0.68166  0.74830  0.72650  Biso   1.000  O
  C268     1.0000 0.68750  0.76480  0.51817  Biso   1.000  C
  C269     1.0000 0.67090  0.72000  0.48677  Biso   1.000  C
  C270     1.0000 0.68730  0.72470  0.44523  Biso   1.000  C
  H349     1.0000 0.67650  0.69230  0.42450  Biso   1.000  H
  C271     1.0000 0.71970  0.77680  0.43331  Biso   1.000  C
  C272     1.0000 0.73500  0.82360  0.46400  Biso   1.000  C
  H350     1.0000 0.75590  0.86040  0.45600  Biso   1.000  H
  C273     1.0000 0.72010  0.81700  0.50570  Biso   1.000  C
  H351     1.0000 0.73210  0.84830  0.52660  Biso   1.000  H
  O96      1.0000 0.63799  0.66990  0.49853  Biso   1.000  O
  H352     1.0000 0.63120  0.64540  0.47710  Biso   1.000  H
  C274     1.0000 0.73970  0.77750  0.38889  Biso   1.000  C
  O97      1.0000 0.74117  0.72236  0.36851  Biso   1.000  O
  O98      1.0000 0.75501  0.83321  0.37286  Biso   1.000  O
  C275     1.0000 0.57009  0.49510  0.69867  Biso   1.000  C
  C276     1.0000 0.58140  0.56300  0.71096  Biso   1.000  C
  C277     1.0000 0.62076  0.57750  0.73722  Biso   1.000  C
  H353     1.0000 0.62660  0.62360  0.74590  Biso   1.000  H
  C278     1.0000 0.65214  0.52540  0.75116  Biso   1.000  C
  C279     1.0000 0.64240  0.45820  0.73818  Biso   1.000  C
  H354     1.0000 0.66380  0.42220  0.74680  Biso   1.000  H
  C280     1.0000 0.60240  0.44330  0.71294  Biso   1.000  C
  H355     1.0000 0.59640  0.39690  0.70490  Biso   1.000  H
  O99      1.0000 0.55138  0.61430  0.69655  Biso   1.000  O
  H356     1.0000 0.56310  0.65260  0.70350  Biso   1.000  H
  C281     1.0000 0.69510  0.54200  0.77886  Biso   1.000  C
  O100     1.0000 0.70496  0.60458  0.78691  Biso   1.000  O
  O101     1.0000 0.72039  0.49299  0.79367  Biso   1.000  O
  C282     1.0000 0.52597  0.47720  0.67267  Biso   1.000  C
  C283     1.0000 0.53053  0.43600  0.63587  Biso   1.000  C
  C284     1.0000 0.48821  0.41530  0.61347  Biso   1.000  C
  H357     1.0000 0.49170  0.38760  0.58850  Biso   1.000  H
  C285     1.0000 0.44187  0.43410  0.62679  Biso   1.000  C
  C286     1.0000 0.43739  0.47450  0.66331  Biso   1.000  C
  H358     1.0000 0.40590  0.48740  0.67330  Biso   1.000  H
  C287     1.0000 0.47920  0.49620  0.68533  Biso   1.000  C
  H359     1.0000 0.47550  0.52490  0.70980  Biso   1.000  H
  O102     1.0000 0.57610  0.41640  0.62155  Biso   1.000  O
  H360     1.0000 0.59770  0.43230  0.63800  Biso   1.000  H
  C288     1.0000 0.39732  0.40910  0.60222  Biso   1.000  C
  O103     1.0000 0.35677  0.40636  0.62132  Biso   1.000  O
  O104     1.0000 0.40485  0.39120  0.56402  Biso   1.000  O
  C289     1.0000 0.52470  0.93280  0.76000  Biso   1.000  C
  C290     1.0000 0.55620  0.87940  0.75010  Biso   1.000  C
  C291     1.0000 0.60160  0.87290  0.77090  Biso   1.000  C
  H361     1.0000 0.62260  0.83550  0.76410  Biso   1.000  H
  C292     1.0000 0.61588  0.92070  0.80120  Biso   1.000  C
  C293     1.0000 0.58500  0.97530  0.81210  Biso   1.000  C
  H362     1.0000 0.59440  0.00800  0.83320  Biso   1.000  H
  C294     1.0000 0.53950  0.98060  0.79100  Biso   1.000  C
  H363     1.0000 0.51830  0.01760  0.79810  Biso   1.000  H
  O105     1.0000 0.54185  0.83540  0.71850  Biso   1.000  O
  H364     1.0000 0.55950  0.80000  0.71900  Biso   1.000  H
  C295     1.0000 0.66564  0.91310  0.82143  Biso   1.000  C
  O106     1.0000 0.68962  0.85833  0.81402  Biso   1.000  O
  O107     1.0000 0.68292  0.96134  0.84317  Biso   1.000  O
  C296     1.0000 0.97300  0.74830  0.75570  Biso   1.000  C
  C297     1.0000 0.94220  0.69330  0.74560  Biso   1.000  C
  C298     1.0000 0.89340  0.69520  0.75660  Biso   1.000  C
  H365     1.0000 0.87360  0.65590  0.75120  Biso   1.000  H
  C299     1.0000 0.87210  0.75310  0.77551  Biso   1.000  C
  C300     1.0000 0.90303  0.80820  0.78530  Biso   1.000  C
  H366     1.0000 0.88990  0.84820  0.79860  Biso   1.000  H
  C301     1.0000 0.95300  0.80520  0.77577  Biso   1.000  C
  H367     1.0000 0.97360  0.84280  0.78320  Biso   1.000  H
  O108     1.0000 0.96000  0.63620  0.72440  Biso   1.000  O
  H368     1.0000 0.97530  0.61120  0.74170  Biso   1.000  H
  C302     1.0000 0.81820  0.75550  0.78497  Biso   1.000  C
  O109     1.0000 0.79718  0.69733  0.78796  Biso   1.000  O
  O110     1.0000 0.79713  0.81131  0.78839  Biso   1.000  O
  O111     1.0000 0.77479  0.02191  0.88504  Biso   1.000  O
  C303     1.0000 0.81270  0.05320  0.89373  Biso   1.000  C
  H369     1.0000 0.82720  0.08010  0.87170  Biso   1.000  H
  N29      1.0000 0.83498  0.05220  0.93157  Biso   1.000  N
  C304     1.0000 0.81510  0.01100  0.96630  Biso   1.000  C
  H370     1.0000 0.84120  0.98270  0.97870  Biso   1.000  H
  H371     1.0000 0.80160  0.04130  0.98840  Biso   1.000  H
  H372     1.0000 0.78920  0.98110  0.95520  Biso   1.000  H
  C305     1.0000 0.88190  0.08960  0.93860  Biso   1.000  C
  H373     1.0000 0.88850  0.11960  0.91390  Biso   1.000  H
  H374     1.0000 0.87940  0.11760  0.96460  Biso   1.000  H
  H375     1.0000 0.90860  0.05640  0.94170  Biso   1.000  H
  O112     1.0000 0.82135  0.54500  0.75378  Biso   1.000  O
  C306     1.0000 0.83330  0.51580  0.72610  Biso   1.000  C
  H376     1.0000 0.85980  0.54340  0.71640  Biso   1.000  H
  N30      1.0000 0.83410  0.46980  0.69970  Biso   1.000  N
  C307     1.0000 0.87160  0.44700  0.66400  Biso   1.000  C
  H377     1.0000 0.85850  0.40730  0.64840  Biso   1.000  H
  H378     1.0000 0.87700  0.48510  0.64400  Biso   1.000  H
  H379     1.0000 0.90280  0.43430  0.67750  Biso   1.000  H
  C308     1.0000 0.78210  0.43830  0.70050  Biso   1.000  C
  H380     1.0000 0.75780  0.47460  0.69570  Biso   1.000  H
  H381     1.0000 0.77930  0.40350  0.67790  Biso   1.000  H
  H382     1.0000 0.77630  0.41680  0.72850  Biso   1.000  H
  O113     1.0000 0.63370  0.71440  0.84220  Biso   1.000  O
  C309     1.0000 0.59080  0.73010  0.83560  Biso   1.000  C
  H383     1.0000 0.57720  0.71310  0.80960  Biso   1.000  H
  C310     1.0000 0.52350  0.80870  0.86880  Biso   1.000  C
  H384     1.0000 0.53640  0.85170  0.88070  Biso   1.000  H
  H385     1.0000 0.50420  0.81880  0.84300  Biso   1.000  H
  H386     1.0000 0.50260  0.78610  0.89010  Biso   1.000  H
  C311     1.0000 0.60240  0.78760  0.89020  Biso   1.000  C
  H387     1.0000 0.63110  0.75770  0.88740  Biso   1.000  H
  H388     1.0000 0.61180  0.83530  0.88430  Biso   1.000  H
  H389     1.0000 0.58940  0.78420  0.91940  Biso   1.000  H
  O114     1.0000 0.72998  0.89200  0.92557  Biso   1.000  O
  C312     1.0000 0.70360  0.84500  0.93890  Biso   1.000  C
  H390     1.0000 0.68940  0.81890  0.91630  Biso   1.000  H
  N31      1.0000 0.69090  0.82330  0.97590  Biso   1.000  N
  C313     1.0000 0.71310  0.86350  0.01290  Biso   1.000  C
  H391     1.0000 0.73680  0.89680  0.00160  Biso   1.000  H
  H392     1.0000 0.68710  0.88800  0.02830  Biso   1.000  H
  H393     1.0000 0.72960  0.83180  0.03250  Biso   1.000  H
  C314     1.0000 0.65810  0.77300  0.98620  Biso   1.000  C
  H394     1.0000 0.67160  0.74420  0.00910  Biso   1.000  H
  H395     1.0000 0.62750  0.79410  0.99590  Biso   1.000  H
  H396     1.0000 0.65160  0.74460  0.96080  Biso   1.000  H
  O115     1.0000 0.86350  0.61610  0.86660  Biso   1.000  O
  N32      1.0000 0.93500  0.67280  0.88910  Biso   1.000  N
  N33      1.0000 0.56290  0.76480  0.85800  Biso   1.000  N
  C315     1.0000 0.88950  0.66800  0.87150  Biso   1.000  C
  H397     1.0000 0.87570  0.70990  0.86150  Biso   1.000  H
  C316     1.0000 0.95740  0.74080  0.89390  Biso   1.000  C
  H398     1.0000 0.96540  0.74860  0.92420  Biso   1.000  H
  H399     1.0000 0.98740  0.74300  0.87670  Biso   1.000  H
  H400     1.0000 0.93440  0.77620  0.88410  Biso   1.000  H
  C317     1.0000 0.96870  0.61360  0.88560  Biso   1.000  C
  H401     1.0000 0.99990  0.62500  0.89950  Biso   1.000  H
  H402     1.0000 0.95420  0.57350  0.89970  Biso   1.000  H
  H403     1.0000 0.97450  0.60310  0.85530  Biso   1.000  H
  C318     1.0000 0.60860  0.75440  0.86170  Biso   1.000  C
  H404     1.0000 0.62500  0.78170  0.88250  Biso   1.000  H
  C319     1.0000 0.54050  0.71370  0.81970  Biso   1.000  C
  H405     1.0000 0.56670  0.68410  0.80860  Biso   1.000  H
  H406     1.0000 0.51430  0.68510  0.83170  Biso   1.000  H
  H407     1.0000 0.52740  0.74190  0.79630  Biso   1.000  H
  C320     1.0000 0.70290  0.93230  0.94400  Biso   1.000  C
  H408     1.0000 0.69830  0.97610  0.93110  Biso   1.000  H
  N34      1.0000 0.67880  0.92030  0.98100  Biso   1.000  N
  C321     1.0000 0.67910  0.85330  0.99790  Biso   1.000  C
  H409     1.0000 0.69110  0.85440  0.02750  Biso   1.000  H
  H410     1.0000 0.64570  0.83470  0.99740  Biso   1.000  H
  H411     1.0000 0.70050  0.82410  0.98040  Biso   1.000  H
  C322     1.0000 0.64680  0.98420  0.99130  Biso   1.000  C
  H412     1.0000 0.62810  0.97590  0.01760  Biso   1.000  H
  H413     1.0000 0.66800  0.02450  0.99530  Biso   1.000  H
  H414     1.0000 0.62420  0.99270  0.96740  Biso   1.000  H
  H415     1.0000 0.65210  0.01950  0.96930  Biso   1.000  H
  H416     1.0000 0.61220  0.97090  0.99160  Biso   1.000  H
  H417     1.0000 0.65600  0.00270  0.01940  Biso   1.000  H
  C323     1.0000 0.94480  0.67520  0.86700  Biso   1.000  C
  H418     1.0000 0.92160  0.67090  0.84320  Biso   1.000  H
  H419     1.0000 0.96390  0.71760  0.86350  Biso   1.000  H
  H420     1.0000 0.96700  0.63550  0.86710  Biso   1.000  H
  C324     1.0000 0.87960  0.63650  0.90130  Biso   1.000  C
  H421     1.0000 0.86320  0.62230  0.92660  Biso   1.000  H
  N35      1.0000 0.91930  0.67770  0.90560  Biso   1.000  N
  C325     1.0000 0.94340  0.70660  0.94260  Biso   1.000  C
  H422     1.0000 0.97790  0.69230  0.94290  Biso   1.000  H
  H423     1.0000 0.94160  0.75690  0.94140  Biso   1.000  H
  H424     1.0000 0.92730  0.69020  0.96880  Biso   1.000  H
  H425     1.0000 0.90040  0.47720  0.66480  Biso   1.000  H
  H426     1.0000 0.88180  0.39940  0.66920  Biso   1.000  H
  H427     1.0000 0.85610  0.45020  0.63580  Biso   1.000  H
  H428     1.0000 0.95250  0.57600  0.87020  Biso   1.000  H
  H429     1.0000 0.99820  0.62760  0.86990  Biso   1.000  H
  H430     1.0000 0.97790  0.59790  0.91440  Biso   1.000  H
  Sr16     1.0000 0.71153  0.92002  0.32608  Biso   1.000  Sr
  Sr17     1.0000 0.79088  0.76572  0.30131  Biso   1.000  Sr
  Sr18     1.0000 0.72805  0.59955  0.35052  Biso   1.000  Sr
  C326     1.0000 0.82470  0.74240  0.06519  Biso   1.000  C
  C327     1.0000 0.87160  0.75080  0.08090  Biso   1.000  C
  C328     1.0000 0.88030  0.75550  0.12412  Biso   1.000  C
  H431     1.0000 0.91300  0.76110  0.13390  Biso   1.000  H
  C329     1.0000 0.84310  0.75240  0.15384  Biso   1.000  C
  C330     1.0000 0.79570  0.74650  0.13890  Biso   1.000  C
  H432     1.0000 0.76920  0.74560  0.15860  Biso   1.000  H
  C331     1.0000 0.78660  0.74170  0.09570  Biso   1.000  C
  H433     1.0000 0.75370  0.73790  0.08600  Biso   1.000  H
  O116     1.0000 0.91126  0.75570  0.05413  Biso   1.000  O
  H434     1.0000 0.91470  0.71860  0.04060  Biso   1.000  H
  C332     1.0000 0.85360  0.75780  0.20123  Biso   1.000  C
  O117     1.0000 0.89700  0.76758  0.21261  Biso   1.000  O
  O118     1.0000 0.81834  0.75170  0.22650  Biso   1.000  O
  C333     1.0000 0.81250  0.73520  0.01817  Biso   1.000  C
  C334     1.0000 0.82910  0.78000  0.98677  Biso   1.000  C
  C335     1.0000 0.81270  0.77530  0.94523  Biso   1.000  C
  H435     1.0000 0.82350  0.80770  0.92450  Biso   1.000  H
  C336     1.0000 0.78030  0.72320  0.93331  Biso   1.000  C
  C337     1.0000 0.76500  0.67640  0.96400  Biso   1.000  C
  H436     1.0000 0.74410  0.63960  0.95600  Biso   1.000  H
  C338     1.0000 0.77990  0.68300  0.00570  Biso   1.000  C
  H437     1.0000 0.76790  0.65170  0.02660  Biso   1.000  H
  O119     1.0000 0.86201  0.83010  0.99853  Biso   1.000  O
  H438     1.0000 0.86880  0.85460  0.97710  Biso   1.000  H
  C339     1.0000 0.76030  0.72250  0.88889  Biso   1.000  C
  O120     1.0000 0.75883  0.77764  0.86851  Biso   1.000  O
  O121     1.0000 0.74499  0.66679  0.87286  Biso   1.000  O
  C340     1.0000 0.92991  0.00490  0.19867  Biso   1.000  C
  C341     1.0000 0.91860  0.93700  0.21096  Biso   1.000  C
  C342     1.0000 0.87924  0.92250  0.23722  Biso   1.000  C
  H439     1.0000 0.87340  0.87640  0.24590  Biso   1.000  H
  C343     1.0000 0.84786  0.97460  0.25116  Biso   1.000  C
  C344     1.0000 0.85760  0.04180  0.23818  Biso   1.000  C
  H440     1.0000 0.83620  0.07780  0.24680  Biso   1.000  H
  C345     1.0000 0.89760  0.05670  0.21294  Biso   1.000  C
  H441     1.0000 0.90360  0.10310  0.20490  Biso   1.000  H
  O122     1.0000 0.94862  0.88570  0.19655  Biso   1.000  O
  H442     1.0000 0.93690  0.84740  0.20350  Biso   1.000  H
  C346     1.0000 0.80490  0.95800  0.27886  Biso   1.000  C
  O123     1.0000 0.79504  0.89542  0.28691  Biso   1.000  O
  O124     1.0000 0.77961  0.00701  0.29367  Biso   1.000  O
  C347     1.0000 0.97403  0.02280  0.17267  Biso   1.000  C
  C348     1.0000 0.96947  0.06400  0.13587  Biso   1.000  C
  C349     1.0000 0.01179  0.08470  0.11347  Biso   1.000  C
  H443     1.0000 0.00830  0.11240  0.08850  Biso   1.000  H
  C350     1.0000 0.05813  0.06590  0.12679  Biso   1.000  C
  C351     1.0000 0.06261  0.02550  0.16331  Biso   1.000  C
  H444     1.0000 0.09410  0.01260  0.17330  Biso   1.000  H
  C352     1.0000 0.02080  0.00380  0.18533  Biso   1.000  C
  H445     1.0000 0.02450  0.97510  0.20980  Biso   1.000  H
  O125     1.0000 0.92390  0.08360  0.12155  Biso   1.000  O
  H446     1.0000 0.90230  0.06770  0.13800  Biso   1.000  H
  C353     1.0000 0.10268  0.09090  0.10222  Biso   1.000  C
  O126     1.0000 0.14323  0.09364  0.12132  Biso   1.000  O
  O127     1.0000 0.09515  0.10880  0.06402  Biso   1.000  O
  C354     1.0000 0.97530  0.56720  0.26000  Biso   1.000  C
  C355     1.0000 0.94380  0.62060  0.25010  Biso   1.000  C
  C356     1.0000 0.89840  0.62710  0.27090  Biso   1.000  C
  H447     1.0000 0.87740  0.66450  0.26410  Biso   1.000  H
  C357     1.0000 0.88412  0.57930  0.30120  Biso   1.000  C
  C358     1.0000 0.91500  0.52470  0.31210  Biso   1.000  C
  H448     1.0000 0.90560  0.49200  0.33320  Biso   1.000  H
  C359     1.0000 0.96050  0.51940  0.29100  Biso   1.000  C
  H449     1.0000 0.98170  0.48240  0.29810  Biso   1.000  H
  O128     1.0000 0.95815  0.66460  0.21850  Biso   1.000  O
  H450     1.0000 0.94050  0.70000  0.21900  Biso   1.000  H
  C360     1.0000 0.83436  0.58690  0.32143  Biso   1.000  C
  O129     1.0000 0.81038  0.64167  0.31402  Biso   1.000  O
  O130     1.0000 0.81708  0.53866  0.34317  Biso   1.000  O
  C361     1.0000 0.52700  0.75170  0.25570  Biso   1.000  C
  C362     1.0000 0.55780  0.80670  0.24560  Biso   1.000  C
  C363     1.0000 0.60660  0.80480  0.25660  Biso   1.000  C
  H451     1.0000 0.62640  0.84410  0.25120  Biso   1.000  H
  C364     1.0000 0.62790  0.74690  0.27551  Biso   1.000  C
  C365     1.0000 0.59697  0.69180  0.28530  Biso   1.000  C
  H452     1.0000 0.61010  0.65180  0.29860  Biso   1.000  H
  C366     1.0000 0.54700  0.69480  0.27577  Biso   1.000  C
  H453     1.0000 0.52640  0.65720  0.28320  Biso   1.000  H
  O131     1.0000 0.54000  0.86380  0.22440  Biso   1.000  O
  H454     1.0000 0.52470  0.88880  0.24170  Biso   1.000  H
  C367     1.0000 0.68180  0.74450  0.28497  Biso   1.000  C
  O132     1.0000 0.70282  0.80267  0.28796  Biso   1.000  O
  O133     1.0000 0.70287  0.68869  0.28839  Biso   1.000  O
  O134     1.0000 0.72521  0.47809  0.38504  Biso   1.000  O
  C368     1.0000 0.68730  0.44680  0.39373  Biso   1.000  C
  H455     1.0000 0.67280  0.41990  0.37170  Biso   1.000  H
  N36      1.0000 0.66502  0.44780  0.43157  Biso   1.000  N
  C369     1.0000 0.68490  0.48900  0.46630  Biso   1.000  C
  H456     1.0000 0.65880  0.51730  0.47870  Biso   1.000  H
  H457     1.0000 0.69840  0.45870  0.48840  Biso   1.000  H
  H458     1.0000 0.71080  0.51890  0.45520  Biso   1.000  H
  C370     1.0000 0.61810  0.41040  0.43860  Biso   1.000  C
  H459     1.0000 0.61150  0.38040  0.41390  Biso   1.000  H
  H460     1.0000 0.62060  0.38240  0.46460  Biso   1.000  H
  H461     1.0000 0.59140  0.44360  0.44170  Biso   1.000  H
  O135     1.0000 0.67865  0.95500  0.25378  Biso   1.000  O
  C371     1.0000 0.66670  0.98420  0.22610  Biso   1.000  C
  H462     1.0000 0.64020  0.95660  0.21640  Biso   1.000  H
  N37      1.0000 0.66590  0.03020  0.19970  Biso   1.000  N
  C372     1.0000 0.62840  0.05300  0.16400  Biso   1.000  C
  H463     1.0000 0.64150  0.09270  0.14840  Biso   1.000  H
  H464     1.0000 0.62300  0.01490  0.14400  Biso   1.000  H
  H465     1.0000 0.59720  0.06570  0.17750  Biso   1.000  H
  C373     1.0000 0.71790  0.06170  0.20050  Biso   1.000  C
  H466     1.0000 0.74220  0.02540  0.19570  Biso   1.000  H
  H467     1.0000 0.72070  0.09650  0.17790  Biso   1.000  H
  H468     1.0000 0.72370  0.08320  0.22850  Biso   1.000  H
  O136     1.0000 0.86630  0.78560  0.34220  Biso   1.000  O
  C374     1.0000 0.90920  0.76990  0.33560  Biso   1.000  C
  H469     1.0000 0.92280  0.78690  0.30960  Biso   1.000  H
  C375     1.0000 0.97650  0.69130  0.36880  Biso   1.000  C
  H470     1.0000 0.96360  0.64830  0.38070  Biso   1.000  H
  H471     1.0000 0.99580  0.68120  0.34300  Biso   1.000  H
  H472     1.0000 0.99740  0.71390  0.39010  Biso   1.000  H
  C376     1.0000 0.89760  0.71240  0.39020  Biso   1.000  C
  H473     1.0000 0.86890  0.74230  0.38740  Biso   1.000  H
  H474     1.0000 0.88820  0.66470  0.38430  Biso   1.000  H
  H475     1.0000 0.91060  0.71580  0.41940  Biso   1.000  H
  O137     1.0000 0.77002  0.60800  0.42557  Biso   1.000  O
  C377     1.0000 0.79640  0.65500  0.43890  Biso   1.000  C
  H476     1.0000 0.81060  0.68110  0.41630  Biso   1.000  H
  N38      1.0000 0.80910  0.67670  0.47590  Biso   1.000  N
  C378     1.0000 0.78690  0.63650  0.51290  Biso   1.000  C
  H477     1.0000 0.76320  0.60320  0.50160  Biso   1.000  H
  H478     1.0000 0.81290  0.61200  0.52830  Biso   1.000  H
  H479     1.0000 0.77040  0.66820  0.53250  Biso   1.000  H
  C379     1.0000 0.84190  0.72700  0.48620  Biso   1.000  C
  H480     1.0000 0.82840  0.75580  0.50910  Biso   1.000  H
  H481     1.0000 0.87250  0.70590  0.49590  Biso   1.000  H
  H482     1.0000 0.84840  0.75540  0.46080  Biso   1.000  H
  O138     1.0000 0.63650  0.88390  0.36660  Biso   1.000  O
  N39      1.0000 0.56500  0.82720  0.38910  Biso   1.000  N
  N40      1.0000 0.93710  0.73520  0.35800  Biso   1.000  N
  C380     1.0000 0.61050  0.83200  0.37150  Biso   1.000  C
  H483     1.0000 0.62430  0.79010  0.36150  Biso   1.000  H
  C381     1.0000 0.54260  0.75920  0.39390  Biso   1.000  C
  H484     1.0000 0.53460  0.75140  0.42420  Biso   1.000  H
  H485     1.0000 0.51260  0.75700  0.37670  Biso   1.000  H
  H486     1.0000 0.56560  0.72380  0.38410  Biso   1.000  H
  C382     1.0000 0.53130  0.88640  0.38560  Biso   1.000  C
  H487     1.0000 0.50010  0.87500  0.39950  Biso   1.000  H
  H488     1.0000 0.54580  0.92650  0.39970  Biso   1.000  H
  H489     1.0000 0.52550  0.89690  0.35530  Biso   1.000  H
  C383     1.0000 0.89140  0.74560  0.36170  Biso   1.000  C
  H490     1.0000 0.87500  0.71830  0.38250  Biso   1.000  H
  C384     1.0000 0.95950  0.78630  0.31970  Biso   1.000  C
  H491     1.0000 0.93330  0.81590  0.30860  Biso   1.000  H
  H492     1.0000 0.98570  0.81490  0.33170  Biso   1.000  H
  H493     1.0000 0.97260  0.75810  0.29630  Biso   1.000  H
  C385     1.0000 0.79710  0.56770  0.44400  Biso   1.000  C
  H494     1.0000 0.80170  0.52390  0.43110  Biso   1.000  H
  N41      1.0000 0.82120  0.57970  0.48100  Biso   1.000  N
  C386     1.0000 0.82090  0.64670  0.49790  Biso   1.000  C
  H495     1.0000 0.80890  0.64560  0.52750  Biso   1.000  H
  H496     1.0000 0.85430  0.66530  0.49740  Biso   1.000  H
  H497     1.0000 0.79950  0.67590  0.48040  Biso   1.000  H
  C387     1.0000 0.85320  0.51580  0.49130  Biso   1.000  C
  H498     1.0000 0.87190  0.52410  0.51760  Biso   1.000  H
  H499     1.0000 0.83200  0.47550  0.49530  Biso   1.000  H
  H500     1.0000 0.87580  0.50730  0.46740  Biso   1.000  H
  H501     1.0000 0.84790  0.48050  0.46930  Biso   1.000  H
  H502     1.0000 0.88780  0.52910  0.49160  Biso   1.000  H
  H503     1.0000 0.84400  0.49730  0.51940  Biso   1.000  H
  C388     1.0000 0.55520  0.82480  0.36700  Biso   1.000  C
  H504     1.0000 0.57840  0.82910  0.34320  Biso   1.000  H
  H505     1.0000 0.53610  0.78240  0.36350  Biso   1.000  H
  H506     1.0000 0.53300  0.86450  0.36710  Biso   1.000  H
  C389     1.0000 0.62040  0.86350  0.40130  Biso   1.000  C
  H507     1.0000 0.63680  0.87770  0.42660  Biso   1.000  H
  N42      1.0000 0.58070  0.82230  0.40560  Biso   1.000  N
  C390     1.0000 0.55660  0.79340  0.44260  Biso   1.000  C
  H508     1.0000 0.52210  0.80770  0.44290  Biso   1.000  H
  H509     1.0000 0.55840  0.74310  0.44140  Biso   1.000  H
  H510     1.0000 0.57270  0.80980  0.46880  Biso   1.000  H
  H511     1.0000 0.59960  0.02280  0.16480  Biso   1.000  H
  H512     1.0000 0.61820  0.10060  0.16920  Biso   1.000  H
  H513     1.0000 0.64390  0.04980  0.13580  Biso   1.000  H
  H514     1.0000 0.54750  0.92400  0.37020  Biso   1.000  H
  H515     1.0000 0.50180  0.87240  0.36990  Biso   1.000  H
  H516     1.0000 0.52210  0.90210  0.41440  Biso   1.000  H
  Sr19     1.0000 0.21153  0.57998  0.67392  Biso   1.000  Sr
  Sr20     1.0000 0.29088  0.73428  0.69869  Biso   1.000  Sr
  Sr21     1.0000 0.22805  0.90045  0.64948  Biso   1.000  Sr
  C391     1.0000 0.32470  0.75760  0.93481  Biso   1.000  C
  C392     1.0000 0.37160  0.74920  0.91910  Biso   1.000  C
  C393     1.0000 0.38030  0.74450  0.87588  Biso   1.000  C
  H517     1.0000 0.41300  0.73890  0.86610  Biso   1.000  H
  C394     1.0000 0.34310  0.74760  0.84616  Biso   1.000  C
  C395     1.0000 0.29570  0.75350  0.86110  Biso   1.000  C
  H518     1.0000 0.26920  0.75440  0.84140  Biso   1.000  H
  C396     1.0000 0.28660  0.75830  0.90430  Biso   1.000  C
  H519     1.0000 0.25370  0.76210  0.91400  Biso   1.000  H
  O139     1.0000 0.41126  0.74430  0.94587  Biso   1.000  O
  H520     1.0000 0.41470  0.78140  0.95940  Biso   1.000  H
  C397     1.0000 0.35360  0.74220  0.79877  Biso   1.000  C
  O140     1.0000 0.39700  0.73242  0.78739  Biso   1.000  O
  O141     1.0000 0.31834  0.74830  0.77350  Biso   1.000  O
  C398     1.0000 0.31250  0.76480  0.98183  Biso   1.000  C
  C399     1.0000 0.32910  0.72000  0.01323  Biso   1.000  C
  C400     1.0000 0.31270  0.72470  0.05477  Biso   1.000  C
  H521     1.0000 0.32350  0.69230  0.07550  Biso   1.000  H
  C401     1.0000 0.28030  0.77680  0.06669  Biso   1.000  C
  C402     1.0000 0.26500  0.82360  0.03600  Biso   1.000  C
  H522     1.0000 0.24410  0.86040  0.04400  Biso   1.000  H
  C403     1.0000 0.27990  0.81700  0.99430  Biso   1.000  C
  H523     1.0000 0.26790  0.84830  0.97340  Biso   1.000  H
  O142     1.0000 0.36201  0.66990  0.00147  Biso   1.000  O
  H524     1.0000 0.36880  0.64540  0.02290  Biso   1.000  H
  C404     1.0000 0.26030  0.77750  0.11111  Biso   1.000  C
  O143     1.0000 0.25883  0.72236  0.13149  Biso   1.000  O
  O144     1.0000 0.24499  0.83321  0.12714  Biso   1.000  O
  C405     1.0000 0.42991  0.49510  0.80133  Biso   1.000  C
  C406     1.0000 0.41860  0.56300  0.78904  Biso   1.000  C
  C407     1.0000 0.37924  0.57750  0.76278  Biso   1.000  C
  H525     1.0000 0.37340  0.62360  0.75410  Biso   1.000  H
  C408     1.0000 0.34786  0.52540  0.74884  Biso   1.000  C
  C409     1.0000 0.35760  0.45820  0.76182  Biso   1.000  C
  H526     1.0000 0.33620  0.42220  0.75320  Biso   1.000  H
  C410     1.0000 0.39760  0.44330  0.78706  Biso   1.000  C
  H527     1.0000 0.40360  0.39690  0.79510  Biso   1.000  H
  O145     1.0000 0.44862  0.61430  0.80345  Biso   1.000  O
  H528     1.0000 0.43690  0.65260  0.79650  Biso   1.000  H
  C411     1.0000 0.30490  0.54200  0.72114  Biso   1.000  C
  O146     1.0000 0.29504  0.60458  0.71309  Biso   1.000  O
  O147     1.0000 0.27961  0.49299  0.70633  Biso   1.000  O
  C412     1.0000 0.47403  0.47720  0.82733  Biso   1.000  C
  C413     1.0000 0.46947  0.43600  0.86413  Biso   1.000  C
  C414     1.0000 0.51179  0.41530  0.88653  Biso   1.000  C
  H529     1.0000 0.50830  0.38760  0.91150  Biso   1.000  H
  C415     1.0000 0.55813  0.43410  0.87321  Biso   1.000  C
  C416     1.0000 0.56261  0.47450  0.83669  Biso   1.000  C
  H530     1.0000 0.59410  0.48740  0.82670  Biso   1.000  H
  C417     1.0000 0.52080  0.49620  0.81467  Biso   1.000  C
  H531     1.0000 0.52450  0.52490  0.79020  Biso   1.000  H
  O148     1.0000 0.42390  0.41640  0.87845  Biso   1.000  O
  H532     1.0000 0.40230  0.43230  0.86200  Biso   1.000  H
  C418     1.0000 0.60268  0.40910  0.89778  Biso   1.000  C
  O149     1.0000 0.64323  0.40636  0.87868  Biso   1.000  O
  O150     1.0000 0.59515  0.39120  0.93598  Biso   1.000  O
  C419     1.0000 0.47530  0.93280  0.74000  Biso   1.000  C
  C420     1.0000 0.44380  0.87940  0.74990  Biso   1.000  C
  C421     1.0000 0.39840  0.87290  0.72910  Biso   1.000  C
  H533     1.0000 0.37740  0.83550  0.73590  Biso   1.000  H
  C422     1.0000 0.38412  0.92070  0.69880  Biso   1.000  C
  C423     1.0000 0.41500  0.97530  0.68790  Biso   1.000  C
  H534     1.0000 0.40560  0.00800  0.66680  Biso   1.000  H
  C424     1.0000 0.46050  0.98060  0.70900  Biso   1.000  C
  H535     1.0000 0.48170  0.01760  0.70190  Biso   1.000  H
  O151     1.0000 0.45815  0.83540  0.78150  Biso   1.000  O
  H536     1.0000 0.44050  0.80000  0.78100  Biso   1.000  H
  C425     1.0000 0.33436  0.91310  0.67857  Biso   1.000  C
  O152     1.0000 0.31038  0.85833  0.68598  Biso   1.000  O
  O153     1.0000 0.31708  0.96134  0.65683  Biso   1.000  O
  C426     1.0000 0.02700  0.74830  0.74430  Biso   1.000  C
  C427     1.0000 0.05780  0.69330  0.75440  Biso   1.000  C
  C428     1.0000 0.10660  0.69520  0.74340  Biso   1.000  C
  H537     1.0000 0.12640  0.65590  0.74880  Biso   1.000  H
  C429     1.0000 0.12790  0.75310  0.72449  Biso   1.000  C
  C430     1.0000 0.09697  0.80820  0.71470  Biso   1.000  C
  H538     1.0000 0.11010  0.84820  0.70140  Biso   1.000  H
  C431     1.0000 0.04700  0.80520  0.72423  Biso   1.000  C
  H539     1.0000 0.02640  0.84280  0.71680  Biso   1.000  H
  O154     1.0000 0.04000  0.63620  0.77560  Biso   1.000  O
  H540     1.0000 0.02470  0.61120  0.75830  Biso   1.000  H
  C432     1.0000 0.18180  0.75550  0.71503  Biso   1.000  C
  O155     1.0000 0.20282  0.69733  0.71204  Biso   1.000  O
  O156     1.0000 0.20287  0.81131  0.71161  Biso   1.000  O
  O157     1.0000 0.22521  0.02191  0.61496  Biso   1.000  O
  C433     1.0000 0.18730  0.05320  0.60627  Biso   1.000  C
  H541     1.0000 0.17280  0.08010  0.62830  Biso   1.000  H
  N43      1.0000 0.16502  0.05220  0.56843  Biso   1.000  N
  C434     1.0000 0.18490  0.01100  0.53370  Biso   1.000  C
  H542     1.0000 0.15880  0.98270  0.52130  Biso   1.000  H
  H543     1.0000 0.19840  0.04130  0.51160  Biso   1.000  H
  H544     1.0000 0.21080  0.98110  0.54480  Biso   1.000  H
  C435     1.0000 0.11810  0.08960  0.56140  Biso   1.000  C
  H545     1.0000 0.11150  0.11960  0.58610  Biso   1.000  H
  H546     1.0000 0.12060  0.11760  0.53540  Biso   1.000  H
  H547     1.0000 0.09140  0.05640  0.55830  Biso   1.000  H
  O158     1.0000 0.17865  0.54500  0.74622  Biso   1.000  O
  C436     1.0000 0.16670  0.51580  0.77390  Biso   1.000  C
  H548     1.0000 0.14020  0.54340  0.78360  Biso   1.000  H
  N44      1.0000 0.16590  0.46980  0.80030  Biso   1.000  N
  C437     1.0000 0.12840  0.44700  0.83600  Biso   1.000  C
  H549     1.0000 0.14150  0.40730  0.85160  Biso   1.000  H
  H550     1.0000 0.12300  0.48510  0.85600  Biso   1.000  H
  H551     1.0000 0.09720  0.43430  0.82250  Biso   1.000  H
  C438     1.0000 0.21790  0.43830  0.79950  Biso   1.000  C
  H552     1.0000 0.24220  0.47460  0.80430  Biso   1.000  H
  H553     1.0000 0.22070  0.40350  0.82210  Biso   1.000  H
  H554     1.0000 0.22370  0.41680  0.77150  Biso   1.000  H
  O159     1.0000 0.36630  0.71440  0.65780  Biso   1.000  O
  C439     1.0000 0.40920  0.73010  0.66440  Biso   1.000  C
  H555     1.0000 0.42280  0.71310  0.69040  Biso   1.000  H
  C440     1.0000 0.47650  0.80870  0.63120  Biso   1.000  C
  H556     1.0000 0.46360  0.85170  0.61930  Biso   1.000  H
  H557     1.0000 0.49580  0.81880  0.65700  Biso   1.000  H
  H558     1.0000 0.49740  0.78610  0.60990  Biso   1.000  H
  C441     1.0000 0.39760  0.78760  0.60980  Biso   1.000  C
  H559     1.0000 0.36890  0.75770  0.61260  Biso   1.000  H
  H560     1.0000 0.38820  0.83530  0.61570  Biso   1.000  H
  H561     1.0000 0.41060  0.78420  0.58060  Biso   1.000  H
  O160     1.0000 0.27002  0.89200  0.57443  Biso   1.000  O
  C442     1.0000 0.29640  0.84500  0.56110  Biso   1.000  C
  H562     1.0000 0.31060  0.81890  0.58370  Biso   1.000  H
  N45      1.0000 0.30910  0.82330  0.52410  Biso   1.000  N
  C443     1.0000 0.28690  0.86350  0.48710  Biso   1.000  C
  H563     1.0000 0.26320  0.89680  0.49840  Biso   1.000  H
  H564     1.0000 0.31290  0.88800  0.47170  Biso   1.000  H
  H565     1.0000 0.27040  0.83180  0.46750  Biso   1.000  H
  C444     1.0000 0.34190  0.77300  0.51380  Biso   1.000  C
  H566     1.0000 0.32840  0.74420  0.49090  Biso   1.000  H
  H567     1.0000 0.37250  0.79410  0.50410  Biso   1.000  H
  H568     1.0000 0.34840  0.74460  0.53920  Biso   1.000  H
  O161     1.0000 0.13650  0.61610  0.63340  Biso   1.000  O
  N46      1.0000 0.06500  0.67280  0.61090  Biso   1.000  N
  N47      1.0000 0.43710  0.76480  0.64200  Biso   1.000  N
  C445     1.0000 0.11050  0.66800  0.62850  Biso   1.000  C
  H569     1.0000 0.12430  0.70990  0.63850  Biso   1.000  H
  C446     1.0000 0.04260  0.74080  0.60610  Biso   1.000  C
  H570     1.0000 0.03460  0.74860  0.57580  Biso   1.000  H
  H571     1.0000 0.01260  0.74300  0.62330  Biso   1.000  H
  H572     1.0000 0.06560  0.77620  0.61590  Biso   1.000  H
  C447     1.0000 0.03130  0.61360  0.61440  Biso   1.000  C
  H573     1.0000 0.00010  0.62500  0.60050  Biso   1.000  H
  H574     1.0000 0.04580  0.57350  0.60030  Biso   1.000  H
  H575     1.0000 0.02550  0.60310  0.64470  Biso   1.000  H
  C448     1.0000 0.39140  0.75440  0.63830  Biso   1.000  C
  H576     1.0000 0.37500  0.78170  0.61750  Biso   1.000  H
  C449     1.0000 0.45950  0.71370  0.68030  Biso   1.000  C
  H577     1.0000 0.43330  0.68410  0.69140  Biso   1.000  H
  H578     1.0000 0.48570  0.68510  0.66830  Biso   1.000  H
  H579     1.0000 0.47260  0.74190  0.70370  Biso   1.000  H
  C450     1.0000 0.29710  0.93230  0.55600  Biso   1.000  C
  H580     1.0000 0.30170  0.97610  0.56890  Biso   1.000  H
  N48      1.0000 0.32120  0.92030  0.51900  Biso   1.000  N
  C451     1.0000 0.32090  0.85330  0.50210  Biso   1.000  C
  H581     1.0000 0.30890  0.85440  0.47250  Biso   1.000  H
  H582     1.0000 0.35430  0.83470  0.50260  Biso   1.000  H
  H583     1.0000 0.29950  0.82410  0.51960  Biso   1.000  H
  C452     1.0000 0.35320  0.98420  0.50870  Biso   1.000  C
  H584     1.0000 0.37190  0.97590  0.48240  Biso   1.000  H
  H585     1.0000 0.33200  0.02450  0.50470  Biso   1.000  H
  H586     1.0000 0.37580  0.99270  0.53260  Biso   1.000  H
  H587     1.0000 0.34790  0.01950  0.53070  Biso   1.000  H
  H588     1.0000 0.38780  0.97090  0.50840  Biso   1.000  H
  H589     1.0000 0.34400  0.00270  0.48060  Biso   1.000  H
  C453     1.0000 0.05520  0.67520  0.63300  Biso   1.000  C
  H590     1.0000 0.07840  0.67090  0.65680  Biso   1.000  H
  H591     1.0000 0.03610  0.71760  0.63650  Biso   1.000  H
  H592     1.0000 0.03300  0.63550  0.63290  Biso   1.000  H
  C454     1.0000 0.12040  0.63650  0.59870  Biso   1.000  C
  H593     1.0000 0.13680  0.62230  0.57340  Biso   1.000  H
  N49      1.0000 0.08070  0.67770  0.59440  Biso   1.000  N
  C455     1.0000 0.05660  0.70660  0.55740  Biso   1.000  C
  H594     1.0000 0.02210  0.69230  0.55710  Biso   1.000  H
  H595     1.0000 0.05840  0.75690  0.55860  Biso   1.000  H
  H596     1.0000 0.07270  0.69020  0.53120  Biso   1.000  H
  H597     1.0000 0.09960  0.47720  0.83520  Biso   1.000  H
  H598     1.0000 0.11820  0.39940  0.83080  Biso   1.000  H
  H599     1.0000 0.14390  0.45020  0.86420  Biso   1.000  H
  H600     1.0000 0.04750  0.57600  0.62980  Biso   1.000  H
  H601     1.0000 0.00180  0.62760  0.63010  Biso   1.000  H
  H602     1.0000 0.02210  0.59790  0.58560  Biso   1.000  H
  Sr22     1.0000 0.28847  0.92002  0.17392  Biso   1.000  Sr
  Sr23     1.0000 0.20912  0.76572  0.19869  Biso   1.000  Sr
  Sr24     1.0000 0.27195  0.59955  0.14948  Biso   1.000  Sr
  C456     1.0000 0.17530  0.74240  0.43481  Biso   1.000  C
  C457     1.0000 0.12840  0.75080  0.41910  Biso   1.000  C
  C458     1.0000 0.11970  0.75550  0.37588  Biso   1.000  C
  H603     1.0000 0.08700  0.76110  0.36610  Biso   1.000  H
  C459     1.0000 0.15690  0.75240  0.34616  Biso   1.000  C
  C460     1.0000 0.20430  0.74650  0.36110  Biso   1.000  C
  H604     1.0000 0.23080  0.74560  0.34140  Biso   1.000  H
  C461     1.0000 0.21340  0.74170  0.40430  Biso   1.000  C
  H605     1.0000 0.24630  0.73790  0.41400  Biso   1.000  H
  O162     1.0000 0.08874  0.75570  0.44587  Biso   1.000  O
  H606     1.0000 0.08530  0.71860  0.45940  Biso   1.000  H
  C462     1.0000 0.14640  0.75780  0.29877  Biso   1.000  C
  O163     1.0000 0.10300  0.76758  0.28739  Biso   1.000  O
  O164     1.0000 0.18166  0.75170  0.27350  Biso   1.000  O
  C463     1.0000 0.18750  0.73520  0.48183  Biso   1.000  C
  C464     1.0000 0.17090  0.78000  0.51323  Biso   1.000  C
  C465     1.0000 0.18730  0.77530  0.55477  Biso   1.000  C
  H607     1.0000 0.17650  0.80770  0.57550  Biso   1.000  H
  C466     1.0000 0.21970  0.72320  0.56669  Biso   1.000  C
  C467     1.0000 0.23500  0.67640  0.53600  Biso   1.000  C
  H608     1.0000 0.25590  0.63960  0.54400  Biso   1.000  H
  C468     1.0000 0.22010  0.68300  0.49430  Biso   1.000  C
  H609     1.0000 0.23210  0.65170  0.47340  Biso   1.000  H
  O165     1.0000 0.13799  0.83010  0.50147  Biso   1.000  O
  H610     1.0000 0.13120  0.85460  0.52290  Biso   1.000  H
  C469     1.0000 0.23970  0.72250  0.61111  Biso   1.000  C
  O166     1.0000 0.24117  0.77764  0.63149  Biso   1.000  O
  O167     1.0000 0.25501  0.66679  0.62714  Biso   1.000  O
  C470     1.0000 0.07009  0.00490  0.30133  Biso   1.000  C
  C471     1.0000 0.08140  0.93700  0.28904  Biso   1.000  C
  C472     1.0000 0.12076  0.92250  0.26278  Biso   1.000  C
  H611     1.0000 0.12660  0.87640  0.25410  Biso   1.000  H
  C473     1.0000 0.15214  0.97460  0.24884  Biso   1.000  C
  C474     1.0000 0.14240  0.04180  0.26182  Biso   1.000  C
  H612     1.0000 0.16380  0.07780  0.25320  Biso   1.000  H
  C475     1.0000 0.10240  0.05670  0.28706  Biso   1.000  C
  H613     1.0000 0.09640  0.10310  0.29510  Biso   1.000  H
  O168     1.0000 0.05138  0.88570  0.30345  Biso   1.000  O
  H614     1.0000 0.06310  0.84740  0.29650  Biso   1.000  H
  C476     1.0000 0.19510  0.95800  0.22114  Biso   1.000  C
  O169     1.0000 0.20496  0.89542  0.21309  Biso   1.000  O
  O170     1.0000 0.22039  0.00701  0.20633  Biso   1.000  O
  C477     1.0000 0.02597  0.02280  0.32733  Biso   1.000  C
  C478     1.0000 0.03053  0.06400  0.36413  Biso   1.000  C
  C479     1.0000 0.98821  0.08470  0.38653  Biso   1.000  C
  H615     1.0000 0.99170  0.11240  0.41150  Biso   1.000  H
  C480     1.0000 0.94187  0.06590  0.37321  Biso   1.000  C
  C481     1.0000 0.93739  0.02550  0.33669  Biso   1.000  C
  H616     1.0000 0.90590  0.01260  0.32670  Biso   1.000  H
  C482     1.0000 0.97920  0.00380  0.31467  Biso   1.000  C
  H617     1.0000 0.97550  0.97510  0.29020  Biso   1.000  H
  O171     1.0000 0.07610  0.08360  0.37845  Biso   1.000  O
  H618     1.0000 0.09770  0.06770  0.36200  Biso   1.000  H
  C483     1.0000 0.89732  0.09090  0.39778  Biso   1.000  C
  O172     1.0000 0.85677  0.09364  0.37868  Biso   1.000  O
  O173     1.0000 0.90485  0.10880  0.43598  Biso   1.000  O
  C484     1.0000 0.02470  0.56720  0.24000  Biso   1.000  C
  C485     1.0000 0.05620  0.62060  0.24990  Biso   1.000  C
  C486     1.0000 0.10160  0.62710  0.22910  Biso   1.000  C
  H619     1.0000 0.12260  0.66450  0.23590  Biso   1.000  H
  C487     1.0000 0.11588  0.57930  0.19880  Biso   1.000  C
  C488     1.0000 0.08500  0.52470  0.18790  Biso   1.000  C
  H620     1.0000 0.09440  0.49200  0.16680  Biso   1.000  H
  C489     1.0000 0.03950  0.51940  0.20900  Biso   1.000  C
  H621     1.0000 0.01830  0.48240  0.20190  Biso   1.000  H
  O174     1.0000 0.04185  0.66460  0.28150  Biso   1.000  O
  H622     1.0000 0.05950  0.70000  0.28100  Biso   1.000  H
  C490     1.0000 0.16564  0.58690  0.17857  Biso   1.000  C
  O175     1.0000 0.18962  0.64167  0.18598  Biso   1.000  O
  O176     1.0000 0.18292  0.53866  0.15683  Biso   1.000  O
  C491     1.0000 0.47300  0.75170  0.24430  Biso   1.000  C
  C492     1.0000 0.44220  0.80670  0.25440  Biso   1.000  C
  C493     1.0000 0.39340  0.80480  0.24340  Biso   1.000  C
  H623     1.0000 0.37360  0.84410  0.24880  Biso   1.000  H
  C494     1.0000 0.37210  0.74690  0.22449  Biso   1.000  C
  C495     1.0000 0.40303  0.69180  0.21470  Biso   1.000  C
  H624     1.0000 0.38990  0.65180  0.20140  Biso   1.000  H
  C496     1.0000 0.45300  0.69480  0.22423  Biso   1.000  C
  H625     1.0000 0.47360  0.65720  0.21680  Biso   1.000  H
  O177     1.0000 0.46000  0.86380  0.27560  Biso   1.000  O
  H626     1.0000 0.47530  0.88880  0.25830  Biso   1.000  H
  C497     1.0000 0.31820  0.74450  0.21503  Biso   1.000  C
  O178     1.0000 0.29718  0.80267  0.21204  Biso   1.000  O
  O179     1.0000 0.29713  0.68869  0.21161  Biso   1.000  O
  O180     1.0000 0.27479  0.47809  0.11496  Biso   1.000  O
  C498     1.0000 0.31270  0.44680  0.10627  Biso   1.000  C
  H627     1.0000 0.32720  0.41990  0.12830  Biso   1.000  H
  N50      1.0000 0.33498  0.44780  0.06843  Biso   1.000  N
  C499     1.0000 0.31510  0.48900  0.03370  Biso   1.000  C
  H628     1.0000 0.34120  0.51730  0.02130  Biso   1.000  H
  H629     1.0000 0.30160  0.45870  0.01160  Biso   1.000  H
  H630     1.0000 0.28920  0.51890  0.04480  Biso   1.000  H
  C500     1.0000 0.38190  0.41040  0.06140  Biso   1.000  C
  H631     1.0000 0.38850  0.38040  0.08610  Biso   1.000  H
  H632     1.0000 0.37940  0.38240  0.03540  Biso   1.000  H
  H633     1.0000 0.40860  0.44360  0.05830  Biso   1.000  H
  O181     1.0000 0.32135  0.95500  0.24622  Biso   1.000  O
  C501     1.0000 0.33330  0.98420  0.27390  Biso   1.000  C
  H634     1.0000 0.35980  0.95660  0.28360  Biso   1.000  H
  N51      1.0000 0.33410  0.03020  0.30030  Biso   1.000  N
  C502     1.0000 0.37160  0.05300  0.33600  Biso   1.000  C
  H635     1.0000 0.35850  0.09270  0.35160  Biso   1.000  H
  H636     1.0000 0.37700  0.01490  0.35600  Biso   1.000  H
  H637     1.0000 0.40280  0.06570  0.32250  Biso   1.000  H
  C503     1.0000 0.28210  0.06170  0.29950  Biso   1.000  C
  H638     1.0000 0.25780  0.02540  0.30430  Biso   1.000  H
  H639     1.0000 0.27930  0.09650  0.32210  Biso   1.000  H
  H640     1.0000 0.27630  0.08320  0.27150  Biso   1.000  H
  O182     1.0000 0.13370  0.78560  0.15780  Biso   1.000  O
  C504     1.0000 0.09080  0.76990  0.16440  Biso   1.000  C
  H641     1.0000 0.07720  0.78690  0.19040  Biso   1.000  H
  C505     1.0000 0.02350  0.69130  0.13120  Biso   1.000  C
  H642     1.0000 0.03640  0.64830  0.11930  Biso   1.000  H
  H643     1.0000 0.00420  0.68120  0.15700  Biso   1.000  H
  H644     1.0000 0.00260  0.71390  0.10990  Biso   1.000  H
  C506     1.0000 0.10240  0.71240  0.10980  Biso   1.000  C
  H645     1.0000 0.13110  0.74230  0.11260  Biso   1.000  H
  H646     1.0000 0.11180  0.66470  0.11570  Biso   1.000  H
  H647     1.0000 0.08940  0.71580  0.08060  Biso   1.000  H
  O183     1.0000 0.22998  0.60800  0.07443  Biso   1.000  O
  C507     1.0000 0.20360  0.65500  0.06110  Biso   1.000  C
  H648     1.0000 0.18940  0.68110  0.08370  Biso   1.000  H
  N52      1.0000 0.19090  0.67670  0.02410  Biso   1.000  N
  C508     1.0000 0.21310  0.63650  0.98710  Biso   1.000  C
  H649     1.0000 0.23680  0.60320  0.99840  Biso   1.000  H
  H650     1.0000 0.18710  0.61200  0.97170  Biso   1.000  H
  H651     1.0000 0.22960  0.66820  0.96750  Biso   1.000  H
  C509     1.0000 0.15810  0.72700  0.01380  Biso   1.000  C
  H652     1.0000 0.17160  0.75580  0.99090  Biso   1.000  H
  H653     1.0000 0.12750  0.70590  0.00410  Biso   1.000  H
  H654     1.0000 0.15160  0.75540  0.03920  Biso   1.000  H
  O184     1.0000 0.36350  0.88390  0.13340  Biso   1.000  O
  N53      1.0000 0.43500  0.82720  0.11090  Biso   1.000  N
  N54      1.0000 0.06290  0.73520  0.14200  Biso   1.000  N
  C510     1.0000 0.38950  0.83200  0.12850  Biso   1.000  C
  H655     1.0000 0.37570  0.79010  0.13850  Biso   1.000  H
  C511     1.0000 0.45740  0.75920  0.10610  Biso   1.000  C
  H656     1.0000 0.46540  0.75140  0.07580  Biso   1.000  H
  H657     1.0000 0.48740  0.75700  0.12330  Biso   1.000  H
  H658     1.0000 0.43440  0.72380  0.11590  Biso   1.000  H
  C512     1.0000 0.46870  0.88640  0.11440  Biso   1.000  C
  H659     1.0000 0.49990  0.87500  0.10050  Biso   1.000  H
  H660     1.0000 0.45420  0.92650  0.10030  Biso   1.000  H
  H661     1.0000 0.47450  0.89690  0.14470  Biso   1.000  H
  C513     1.0000 0.10860  0.74560  0.13830  Biso   1.000  C
  H662     1.0000 0.12500  0.71830  0.11750  Biso   1.000  H
  C514     1.0000 0.04050  0.78630  0.18030  Biso   1.000  C
  H663     1.0000 0.06670  0.81590  0.19140  Biso   1.000  H
  H664     1.0000 0.01430  0.81490  0.16830  Biso   1.000  H
  H665     1.0000 0.02740  0.75810  0.20370  Biso   1.000  H
  C515     1.0000 0.20290  0.56770  0.05600  Biso   1.000  C
  H666     1.0000 0.19830  0.52390  0.06890  Biso   1.000  H
  N55      1.0000 0.17880  0.57970  0.01900  Biso   1.000  N
  C516     1.0000 0.17910  0.64670  0.00210  Biso   1.000  C
  H667     1.0000 0.19110  0.64560  0.97250  Biso   1.000  H
  H668     1.0000 0.14570  0.66530  0.00260  Biso   1.000  H
  H669     1.0000 0.20050  0.67590  0.01960  Biso   1.000  H
  C517     1.0000 0.14680  0.51580  0.00870  Biso   1.000  C
  H670     1.0000 0.12810  0.52410  0.98240  Biso   1.000  H
  H671     1.0000 0.16800  0.47550  0.00470  Biso   1.000  H
  H672     1.0000 0.12420  0.50730  0.03260  Biso   1.000  H
  H673     1.0000 0.15210  0.48050  0.03070  Biso   1.000  H
  H674     1.0000 0.11220  0.52910  0.00840  Biso   1.000  H
  H675     1.0000 0.15600  0.49730  0.98060  Biso   1.000  H
  C518     1.0000 0.44480  0.82480  0.13300  Biso   1.000  C
  H676     1.0000 0.42160  0.82910  0.15680  Biso   1.000  H
  H677     1.0000 0.46390  0.78240  0.13650  Biso   1.000  H
  H678     1.0000 0.46700  0.86450  0.13290  Biso   1.000  H
  C519     1.0000 0.37960  0.86350  0.09870  Biso   1.000  C
  H679     1.0000 0.36320  0.87770  0.07340  Biso   1.000  H
  N56      1.0000 0.41930  0.82230  0.09440  Biso   1.000  N
  C520     1.0000 0.44340  0.79340  0.05740  Biso   1.000  C
  H680     1.0000 0.47790  0.80770  0.05710  Biso   1.000  H
  H681     1.0000 0.44160  0.74310  0.05860  Biso   1.000  H
  H682     1.0000 0.42730  0.80980  0.03120  Biso   1.000  H
  H683     1.0000 0.40040  0.02280  0.33520  Biso   1.000  H
  H684     1.0000 0.38180  0.10060  0.33080  Biso   1.000  H
  H685     1.0000 0.35610  0.04980  0.36420  Biso   1.000  H
  H686     1.0000 0.45250  0.92400  0.12980  Biso   1.000  H
  H687     1.0000 0.49820  0.87240  0.13010  Biso   1.000  H
  H688     1.0000 0.47790  0.90210  0.08560  Biso   1.000  H
