data_image0
_cell_length_a       21.7672
_cell_length_b       19.633
_cell_length_c       29.4028
_cell_angle_alpha    90
_cell_angle_beta     99.478
_cell_angle_gamma    90

_symmetry_space_group_name_H-M    "P 1"
_symmetry_int_tables_number       1

loop_
  _symmetry_equiv_pos_as_xyz
  'x, y, z'

loop_
  _atom_site_label
  _atom_site_occupancy
  _atom_site_fract_x
  _atom_site_fract_y
  _atom_site_fract_z
  _atom_site_thermal_displace_type
  _atom_site_B_iso_or_equiv
  _atom_site_type_symbol
  Zn1      1.0000 0.69148  0.25752  0.51808  Biso   1.000  Zn
  Zn2      1.0000 0.80750  0.19318  0.49533  Biso   1.000  Zn
  Zn3      1.0000 0.52373  0.47481  0.20486  Biso   1.000  Zn
  O1       1.0000 0.68018  0.15426  0.50813  Biso   1.000  O
  O2       1.0000 0.76353  0.10140  0.48887  Biso   1.000  O
  O3       1.0000 0.66160  0.27171  0.44921  Biso   1.000  O
  O4       1.0000 0.75053  0.22377  0.43609  Biso   1.000  O
  O5       1.0000 0.74399  0.23650  0.58012  Biso   1.000  O
  O6       1.0000 0.82589  0.17717  0.56378  Biso   1.000  O
  O7       1.0000 0.75934  0.84609  0.48393  Biso   1.000  O
  O8       1.0000 0.67095  0.79382  0.49316  Biso   1.000  O
  O9       1.0000 0.61364  0.28121  0.54056  Biso   1.000  O
  O10      1.0000 0.88287  0.17295  0.46753  Biso   1.000  O
  O11      1.0000 0.53516  0.39852  0.31810  Biso   1.000  O
  O12      1.0000 0.57329  0.40721  0.25203  Biso   1.000  O
  O13      1.0000 0.92975  0.05109  0.75903  Biso   1.000  O
  O14      1.0000 0.95057  0.04069  0.68712  Biso   1.000  O
  O15      1.0000 0.57584  0.47450  0.15528  Biso   1.000  O
  N1       1.0000 0.51286  0.97184  0.49974  Biso   1.000  N
  N2       1.0000 0.75440  0.23989  0.27015  Biso   1.000  N
  N3       1.0000 0.77134  0.23037  0.75644  Biso   1.000  N
  N4       1.0000 0.55480  0.31350  0.59239  Biso   1.000  N
  N5       1.0000 0.93560  0.18580  0.40494  Biso   1.000  N
  N6       1.0000 0.66610  0.45830  0.12790  Biso   1.000  N
  C1       1.0000 0.70864  0.10266  0.49756  Biso   1.000  C
  C2       1.0000 0.93430  0.21430  0.35900  Biso   1.000  C
  H1       1.0000 0.89700  0.24060  0.35050  Biso   1.000  H
  H2       1.0000 0.93500  0.17800  0.33720  Biso   1.000  H
  H3       1.0000 0.97000  0.24300  0.35890  Biso   1.000  H
  C3       1.0000 0.67395  0.03624  0.49565  Biso   1.000  C
  C4       1.0000 0.70371  0.97420  0.49100  Biso   1.000  C
  H4       1.0000 0.74550  0.97360  0.48780  Biso   1.000  H
  C5       1.0000 0.67124  0.91342  0.49115  Biso   1.000  C
  C6       1.0000 0.60821  0.91460  0.49467  Biso   1.000  C
  H5       1.0000 0.58630  0.87400  0.49500  Biso   1.000  H
  C7       1.0000 0.57807  0.97656  0.49765  Biso   1.000  C
  C8       1.0000 0.61104  0.03679  0.49888  Biso   1.000  C
  H6       1.0000 0.59100  0.07800  0.50190  Biso   1.000  H
  C9       1.0000 0.69953  0.25445  0.42357  Biso   1.000  C
  C10      1.0000 0.68453  0.27262  0.37339  Biso   1.000  C
  C11      1.0000 0.72310  0.24890  0.34334  Biso   1.000  C
  H7       1.0000 0.75640  0.22040  0.35430  Biso   1.000  H
  C12      1.0000 0.71221  0.26740  0.29740  Biso   1.000  C
  C13      1.0000 0.66301  0.31070  0.28070  Biso   1.000  C
  H8       1.0000 0.65620  0.32360  0.24990  Biso   1.000  H
  C14      1.0000 0.62443  0.33436  0.31005  Biso   1.000  C
  C15      1.0000 0.63481  0.31455  0.35623  Biso   1.000  C
  H9       1.0000 0.60810  0.32960  0.37570  Biso   1.000  H
  C16      1.0000 0.57311  0.38404  0.29166  Biso   1.000  C
  C17      1.0000 0.79239  0.20134  0.59108  Biso   1.000  C
  C18      1.0000 0.81168  0.18525  0.64145  Biso   1.000  C
  C19      1.0000 0.78142  0.21660  0.67370  Biso   1.000  C
  H10      1.0000 0.75000  0.24820  0.66440  Biso   1.000  H
  C20      1.0000 0.79853  0.20030  0.72023  Biso   1.000  C
  C21      1.0000 0.84391  0.15190  0.73400  Biso   1.000  C
  H11      1.0000 0.85410  0.14030  0.76500  Biso   1.000  H
  C22      1.0000 0.87440  0.12024  0.70161  Biso   1.000  C
  C23      1.0000 0.85872  0.13812  0.65553  Biso   1.000  C
  H12      1.0000 0.87990  0.11840  0.63380  Biso   1.000  H
  C24      1.0000 0.92229  0.06649  0.71689  Biso   1.000  C
  C25      1.0000 0.60660  0.30690  0.57670  Biso   1.000  C
  H13      1.0000 0.64210  0.32390  0.59510  Biso   1.000  H
  C26      1.0000 0.54840  0.34850  0.63350  Biso   1.000  C
  H14      1.0000 0.54910  0.31640  0.65820  Biso   1.000  H
  H15      1.0000 0.50950  0.37270  0.62900  Biso   1.000  H
  H16      1.0000 0.58210  0.38020  0.64110  Biso   1.000  H
  C27      1.0000 0.49810  0.28900  0.56690  Biso   1.000  C
  H17      1.0000 0.48560  0.31780  0.54060  Biso   1.000  H
  H18      1.0000 0.46650  0.28930  0.58610  Biso   1.000  H
  H19      1.0000 0.50390  0.24330  0.55670  Biso   1.000  H
  C28      1.0000 0.88710  0.19840  0.42700  Biso   1.000  C
  H20      1.0000 0.85520  0.22640  0.41280  Biso   1.000  H
  C29      1.0000 0.70326  0.84581  0.48899  Biso   1.000  C
  C30      1.0000 0.98600  0.14670  0.42540  Biso   1.000  C
  H21      1.0000 0.00510  0.16800  0.45360  Biso   1.000  H
  H22      1.0000 0.01580  0.14320  0.40480  Biso   1.000  H
  H23      1.0000 0.97170  0.10210  0.43190  Biso   1.000  H
  C31      1.0000 0.63130  0.45500  0.16024  Biso   1.000  C
  H24      1.0000 0.64890  0.43700  0.18870  Biso   1.000  H
  C32      1.0000 0.72980  0.43410  0.13510  Biso   1.000  C
  H25      1.0000 0.73430  0.39990  0.11260  Biso   1.000  H
  H26      1.0000 0.73990  0.41500  0.16550  Biso   1.000  H
  H27      1.0000 0.75730  0.47150  0.13210  Biso   1.000  H
  C33      1.0000 0.64510  0.48600  0.08470  Biso   1.000  C
  H28      1.0000 0.60120  0.49460  0.08140  Biso   1.000  H
  H29      1.0000 0.65300  0.45460  0.06130  Biso   1.000  H
  H30      1.0000 0.66670  0.52800  0.08150  Biso   1.000  H
  N7       1.0000 0.96360  0.21960  0.44250  Biso   1.000  N
  C34      1.0000 0.92680  0.21510  0.47230  Biso   1.000  C
  H31      1.0000 0.93280  0.24360  0.49790  Biso   1.000  H
  H32      1.0000 0.00820  0.12230  0.45130  Biso   1.000  H
  H33      1.0000 0.01280  0.15380  0.40300  Biso   1.000  H
  H34      1.0000 0.95020  0.12080  0.41180  Biso   1.000  H
  C35      1.0000 0.01050  0.27440  0.44740  Biso   1.000  C
  H35      1.0000 0.05150  0.25490  0.45330  Biso   1.000  H
  H36      1.0000 0.00470  0.30340  0.47270  Biso   1.000  H
  H37      1.0000 0.00580  0.30070  0.41950  Biso   1.000  H
  Zn4      1.0000 0.19148  0.75752  0.01808  Biso   1.000  Zn
  Zn5      1.0000 0.30750  0.69318  0.99533  Biso   1.000  Zn
  Zn6      1.0000 0.02373  0.97481  0.70486  Biso   1.000  Zn
  O16      1.0000 0.18018  0.65426  0.00813  Biso   1.000  O
  O17      1.0000 0.26353  0.60140  0.98887  Biso   1.000  O
  O18      1.0000 0.16160  0.77171  0.94921  Biso   1.000  O
  O19      1.0000 0.25053  0.72377  0.93609  Biso   1.000  O
  O20      1.0000 0.24399  0.73650  0.08012  Biso   1.000  O
  O21      1.0000 0.32589  0.67717  0.06378  Biso   1.000  O
  O22      1.0000 0.25934  0.34609  0.98393  Biso   1.000  O
  O23      1.0000 0.17095  0.29382  0.99316  Biso   1.000  O
  O24      1.0000 0.11364  0.78121  0.04056  Biso   1.000  O
  O25      1.0000 0.38287  0.67295  0.96753  Biso   1.000  O
  O26      1.0000 0.03516  0.89852  0.81810  Biso   1.000  O
  O27      1.0000 0.07329  0.90721  0.75203  Biso   1.000  O
  O28      1.0000 0.42975  0.55109  0.25903  Biso   1.000  O
  O29      1.0000 0.45057  0.54069  0.18712  Biso   1.000  O
  O30      1.0000 0.07584  0.97450  0.65528  Biso   1.000  O
  N8       1.0000 0.01286  0.47184  0.99974  Biso   1.000  N
  N9       1.0000 0.25440  0.73989  0.77015  Biso   1.000  N
  N10      1.0000 0.27134  0.73037  0.25644  Biso   1.000  N
  N11      1.0000 0.05480  0.81350  0.09239  Biso   1.000  N
  N12      1.0000 0.43560  0.68580  0.90494  Biso   1.000  N
  N13      1.0000 0.16610  0.95830  0.62790  Biso   1.000  N
  C36      1.0000 0.20864  0.60266  0.99756  Biso   1.000  C
  C37      1.0000 0.43430  0.71430  0.85900  Biso   1.000  C
  H38      1.0000 0.39700  0.74060  0.85050  Biso   1.000  H
  H39      1.0000 0.43500  0.67800  0.83720  Biso   1.000  H
  H40      1.0000 0.47000  0.74300  0.85890  Biso   1.000  H
  C38      1.0000 0.17395  0.53624  0.99565  Biso   1.000  C
  C39      1.0000 0.20371  0.47420  0.99100  Biso   1.000  C
  H41      1.0000 0.24550  0.47360  0.98780  Biso   1.000  H
  C40      1.0000 0.17124  0.41342  0.99115  Biso   1.000  C
  C41      1.0000 0.10821  0.41460  0.99467  Biso   1.000  C
  H42      1.0000 0.08630  0.37400  0.99500  Biso   1.000  H
  C42      1.0000 0.07807  0.47656  0.99765  Biso   1.000  C
  C43      1.0000 0.11104  0.53679  0.99888  Biso   1.000  C
  H43      1.0000 0.09100  0.57800  0.00190  Biso   1.000  H
  C44      1.0000 0.19953  0.75445  0.92357  Biso   1.000  C
  C45      1.0000 0.18453  0.77262  0.87339  Biso   1.000  C
  C46      1.0000 0.22310  0.74890  0.84334  Biso   1.000  C
  H44      1.0000 0.25640  0.72040  0.85430  Biso   1.000  H
  C47      1.0000 0.21221  0.76740  0.79740  Biso   1.000  C
  C48      1.0000 0.16301  0.81070  0.78070  Biso   1.000  C
  H45      1.0000 0.15620  0.82360  0.74990  Biso   1.000  H
  C49      1.0000 0.12443  0.83436  0.81005  Biso   1.000  C
  C50      1.0000 0.13481  0.81455  0.85623  Biso   1.000  C
  H46      1.0000 0.10810  0.82960  0.87570  Biso   1.000  H
  C51      1.0000 0.07311  0.88404  0.79166  Biso   1.000  C
  C52      1.0000 0.29239  0.70134  0.09108  Biso   1.000  C
  C53      1.0000 0.31168  0.68525  0.14145  Biso   1.000  C
  C54      1.0000 0.28142  0.71660  0.17370  Biso   1.000  C
  H47      1.0000 0.25000  0.74820  0.16440  Biso   1.000  H
  C55      1.0000 0.29853  0.70030  0.22023  Biso   1.000  C
  C56      1.0000 0.34391  0.65190  0.23400  Biso   1.000  C
  H48      1.0000 0.35410  0.64030  0.26500  Biso   1.000  H
  C57      1.0000 0.37440  0.62024  0.20161  Biso   1.000  C
  C58      1.0000 0.35872  0.63812  0.15553  Biso   1.000  C
  H49      1.0000 0.37990  0.61840  0.13380  Biso   1.000  H
  C59      1.0000 0.42229  0.56649  0.21689  Biso   1.000  C
  C60      1.0000 0.10660  0.80690  0.07670  Biso   1.000  C
  H50      1.0000 0.14210  0.82390  0.09510  Biso   1.000  H
  C61      1.0000 0.04840  0.84850  0.13350  Biso   1.000  C
  H51      1.0000 0.04910  0.81640  0.15820  Biso   1.000  H
  H52      1.0000 0.00950  0.87270  0.12900  Biso   1.000  H
  H53      1.0000 0.08210  0.88020  0.14110  Biso   1.000  H
  C62      1.0000 0.99810  0.78900  0.06690  Biso   1.000  C
  H54      1.0000 0.98560  0.81780  0.04060  Biso   1.000  H
  H55      1.0000 0.96650  0.78930  0.08610  Biso   1.000  H
  H56      1.0000 0.00390  0.74330  0.05670  Biso   1.000  H
  C63      1.0000 0.38710  0.69840  0.92700  Biso   1.000  C
  H57      1.0000 0.35520  0.72640  0.91280  Biso   1.000  H
  C64      1.0000 0.20326  0.34581  0.98899  Biso   1.000  C
  C65      1.0000 0.48600  0.64670  0.92540  Biso   1.000  C
  H58      1.0000 0.50510  0.66800  0.95360  Biso   1.000  H
  H59      1.0000 0.51580  0.64320  0.90480  Biso   1.000  H
  H60      1.0000 0.47170  0.60210  0.93190  Biso   1.000  H
  C66      1.0000 0.13130  0.95500  0.66024  Biso   1.000  C
  H61      1.0000 0.14890  0.93700  0.68870  Biso   1.000  H
  C67      1.0000 0.22980  0.93410  0.63510  Biso   1.000  C
  H62      1.0000 0.23430  0.89990  0.61260  Biso   1.000  H
  H63      1.0000 0.23990  0.91500  0.66550  Biso   1.000  H
  H64      1.0000 0.25730  0.97150  0.63210  Biso   1.000  H
  C68      1.0000 0.14510  0.98600  0.58470  Biso   1.000  C
  H65      1.0000 0.10120  0.99460  0.58140  Biso   1.000  H
  H66      1.0000 0.15300  0.95460  0.56130  Biso   1.000  H
  H67      1.0000 0.16670  0.02800  0.58150  Biso   1.000  H
  N14      1.0000 0.46360  0.71960  0.94250  Biso   1.000  N
  C69      1.0000 0.42680  0.71510  0.97230  Biso   1.000  C
  H68      1.0000 0.43280  0.74360  0.99790  Biso   1.000  H
  H69      1.0000 0.50820  0.62230  0.95130  Biso   1.000  H
  H70      1.0000 0.51280  0.65380  0.90300  Biso   1.000  H
  H71      1.0000 0.45020  0.62080  0.91180  Biso   1.000  H
  C70      1.0000 0.51050  0.77440  0.94740  Biso   1.000  C
  H72      1.0000 0.55150  0.75490  0.95330  Biso   1.000  H
  H73      1.0000 0.50470  0.80340  0.97270  Biso   1.000  H
  H74      1.0000 0.50580  0.80070  0.91950  Biso   1.000  H
  Zn7      1.0000 0.30852  0.25752  0.98192  Biso   1.000  Zn
  Zn8      1.0000 0.19250  0.19318  0.00467  Biso   1.000  Zn
  Zn9      1.0000 0.47627  0.47481  0.29514  Biso   1.000  Zn
  O31      1.0000 0.31982  0.15426  0.99187  Biso   1.000  O
  O32      1.0000 0.23647  0.10140  0.01113  Biso   1.000  O
  O33      1.0000 0.33840  0.27171  0.05079  Biso   1.000  O
  O34      1.0000 0.24947  0.22377  0.06391  Biso   1.000  O
  O35      1.0000 0.25601  0.23650  0.91988  Biso   1.000  O
  O36      1.0000 0.17411  0.17717  0.93622  Biso   1.000  O
  O37      1.0000 0.24066  0.84609  0.01607  Biso   1.000  O
  O38      1.0000 0.32905  0.79382  0.00684  Biso   1.000  O
  O39      1.0000 0.38636  0.28121  0.95944  Biso   1.000  O
  O40      1.0000 0.11713  0.17295  0.03247  Biso   1.000  O
  O41      1.0000 0.46484  0.39852  0.18190  Biso   1.000  O
  O42      1.0000 0.42671  0.40721  0.24797  Biso   1.000  O
  O43      1.0000 0.07025  0.05109  0.74097  Biso   1.000  O
  O44      1.0000 0.04943  0.04069  0.81288  Biso   1.000  O
  O45      1.0000 0.42416  0.47450  0.34472  Biso   1.000  O
  N15      1.0000 0.48714  0.97184  0.00026  Biso   1.000  N
  N16      1.0000 0.24560  0.23989  0.22985  Biso   1.000  N
  N17      1.0000 0.22866  0.23037  0.74356  Biso   1.000  N
  N18      1.0000 0.44520  0.31350  0.90761  Biso   1.000  N
  N19      1.0000 0.06440  0.18580  0.09506  Biso   1.000  N
  N20      1.0000 0.33390  0.45830  0.37210  Biso   1.000  N
  C71      1.0000 0.29136  0.10266  0.00244  Biso   1.000  C
  C72      1.0000 0.06570  0.21430  0.14100  Biso   1.000  C
  H75      1.0000 0.10300  0.24060  0.14950  Biso   1.000  H
  H76      1.0000 0.06500  0.17800  0.16280  Biso   1.000  H
  H77      1.0000 0.03000  0.24300  0.14110  Biso   1.000  H
  C73      1.0000 0.32605  0.03624  0.00435  Biso   1.000  C
  C74      1.0000 0.29629  0.97420  0.00900  Biso   1.000  C
  H78      1.0000 0.25450  0.97360  0.01220  Biso   1.000  H
  C75      1.0000 0.32876  0.91342  0.00885  Biso   1.000  C
  C76      1.0000 0.39179  0.91460  0.00533  Biso   1.000  C
  H79      1.0000 0.41370  0.87400  0.00500  Biso   1.000  H
  C77      1.0000 0.42193  0.97656  0.00235  Biso   1.000  C
  C78      1.0000 0.38896  0.03679  0.00112  Biso   1.000  C
  H80      1.0000 0.40900  0.07800  0.99810  Biso   1.000  H
  C79      1.0000 0.30047  0.25445  0.07643  Biso   1.000  C
  C80      1.0000 0.31547  0.27262  0.12661  Biso   1.000  C
  C81      1.0000 0.27690  0.24890  0.15666  Biso   1.000  C
  H81      1.0000 0.24360  0.22040  0.14570  Biso   1.000  H
  C82      1.0000 0.28779  0.26740  0.20260  Biso   1.000  C
  C83      1.0000 0.33699  0.31070  0.21930  Biso   1.000  C
  H82      1.0000 0.34380  0.32360  0.25010  Biso   1.000  H
  C84      1.0000 0.37557  0.33436  0.18995  Biso   1.000  C
  C85      1.0000 0.36519  0.31455  0.14377  Biso   1.000  C
  H83      1.0000 0.39190  0.32960  0.12430  Biso   1.000  H
  C86      1.0000 0.42689  0.38404  0.20834  Biso   1.000  C
  C87      1.0000 0.20761  0.20134  0.90892  Biso   1.000  C
  C88      1.0000 0.18832  0.18525  0.85855  Biso   1.000  C
  C89      1.0000 0.21858  0.21660  0.82630  Biso   1.000  C
  H84      1.0000 0.25000  0.24820  0.83560  Biso   1.000  H
  C90      1.0000 0.20147  0.20030  0.77977  Biso   1.000  C
  C91      1.0000 0.15609  0.15190  0.76600  Biso   1.000  C
  H85      1.0000 0.14590  0.14030  0.73500  Biso   1.000  H
  C92      1.0000 0.12560  0.12024  0.79839  Biso   1.000  C
  C93      1.0000 0.14128  0.13812  0.84447  Biso   1.000  C
  H86      1.0000 0.12010  0.11840  0.86620  Biso   1.000  H
  C94      1.0000 0.07771  0.06649  0.78311  Biso   1.000  C
  C95      1.0000 0.39340  0.30690  0.92330  Biso   1.000  C
  H87      1.0000 0.35790  0.32390  0.90490  Biso   1.000  H
  C96      1.0000 0.45160  0.34850  0.86650  Biso   1.000  C
  H88      1.0000 0.45090  0.31640  0.84180  Biso   1.000  H
  H89      1.0000 0.49050  0.37270  0.87100  Biso   1.000  H
  H90      1.0000 0.41790  0.38020  0.85890  Biso   1.000  H
  C97      1.0000 0.50190  0.28900  0.93310  Biso   1.000  C
  H91      1.0000 0.51440  0.31780  0.95940  Biso   1.000  H
  H92      1.0000 0.53350  0.28930  0.91390  Biso   1.000  H
  H93      1.0000 0.49610  0.24330  0.94330  Biso   1.000  H
  C98      1.0000 0.11290  0.19840  0.07300  Biso   1.000  C
  H94      1.0000 0.14480  0.22640  0.08720  Biso   1.000  H
  C99      1.0000 0.29674  0.84581  0.01101  Biso   1.000  C
  C100     1.0000 0.01400  0.14670  0.07460  Biso   1.000  C
  H95      1.0000 0.99490  0.16800  0.04640  Biso   1.000  H
  H96      1.0000 0.98420  0.14320  0.09520  Biso   1.000  H
  H97      1.0000 0.02830  0.10210  0.06810  Biso   1.000  H
  C101     1.0000 0.36870  0.45500  0.33976  Biso   1.000  C
  H98      1.0000 0.35110  0.43700  0.31130  Biso   1.000  H
  C102     1.0000 0.27020  0.43410  0.36490  Biso   1.000  C
  H99      1.0000 0.26570  0.39990  0.38740  Biso   1.000  H
  H100     1.0000 0.26010  0.41500  0.33450  Biso   1.000  H
  H101     1.0000 0.24270  0.47150  0.36790  Biso   1.000  H
  C103     1.0000 0.35490  0.48600  0.41530  Biso   1.000  C
  H102     1.0000 0.39880  0.49460  0.41860  Biso   1.000  H
  H103     1.0000 0.34700  0.45460  0.43870  Biso   1.000  H
  H104     1.0000 0.33330  0.52800  0.41850  Biso   1.000  H
  N21      1.0000 0.03640  0.21960  0.05750  Biso   1.000  N
  C104     1.0000 0.07320  0.21510  0.02770  Biso   1.000  C
  H105     1.0000 0.06720  0.24360  0.00210  Biso   1.000  H
  H106     1.0000 0.99180  0.12230  0.04870  Biso   1.000  H
  H107     1.0000 0.98720  0.15380  0.09700  Biso   1.000  H
  H108     1.0000 0.04980  0.12080  0.08820  Biso   1.000  H
  C105     1.0000 0.98950  0.27440  0.05260  Biso   1.000  C
  H109     1.0000 0.94850  0.25490  0.04670  Biso   1.000  H
  H110     1.0000 0.99530  0.30340  0.02730  Biso   1.000  H
  H111     1.0000 0.99420  0.30070  0.08050  Biso   1.000  H
  Zn10     1.0000 0.80852  0.75752  0.48192  Biso   1.000  Zn
  Zn11     1.0000 0.69250  0.69318  0.50467  Biso   1.000  Zn
  Zn12     1.0000 0.97627  0.97481  0.79514  Biso   1.000  Zn
  O46      1.0000 0.81982  0.65426  0.49187  Biso   1.000  O
  O47      1.0000 0.73647  0.60140  0.51113  Biso   1.000  O
  O48      1.0000 0.83840  0.77171  0.55079  Biso   1.000  O
  O49      1.0000 0.74947  0.72377  0.56391  Biso   1.000  O
  O50      1.0000 0.75601  0.73650  0.41988  Biso   1.000  O
  O51      1.0000 0.67411  0.67717  0.43622  Biso   1.000  O
  O52      1.0000 0.74066  0.34609  0.51607  Biso   1.000  O
  O53      1.0000 0.82905  0.29382  0.50684  Biso   1.000  O
  O54      1.0000 0.88636  0.78121  0.45944  Biso   1.000  O
  O55      1.0000 0.61713  0.67295  0.53247  Biso   1.000  O
  O56      1.0000 0.96484  0.89852  0.68190  Biso   1.000  O
  O57      1.0000 0.92671  0.90721  0.74797  Biso   1.000  O
  O58      1.0000 0.57025  0.55109  0.24097  Biso   1.000  O
  O59      1.0000 0.54943  0.54069  0.31288  Biso   1.000  O
  O60      1.0000 0.92416  0.97450  0.84472  Biso   1.000  O
  N22      1.0000 0.98714  0.47184  0.50026  Biso   1.000  N
  N23      1.0000 0.74560  0.73989  0.72985  Biso   1.000  N
  N24      1.0000 0.72866  0.73037  0.24356  Biso   1.000  N
  N25      1.0000 0.94520  0.81350  0.40761  Biso   1.000  N
  N26      1.0000 0.56440  0.68580  0.59506  Biso   1.000  N
  N27      1.0000 0.83390  0.95830  0.87210  Biso   1.000  N
  C106     1.0000 0.79136  0.60266  0.50244  Biso   1.000  C
  C107     1.0000 0.56570  0.71430  0.64100  Biso   1.000  C
  H112     1.0000 0.60300  0.74060  0.64950  Biso   1.000  H
  H113     1.0000 0.56500  0.67800  0.66280  Biso   1.000  H
  H114     1.0000 0.53000  0.74300  0.64110  Biso   1.000  H
  C108     1.0000 0.82605  0.53624  0.50435  Biso   1.000  C
  C109     1.0000 0.79629  0.47420  0.50900  Biso   1.000  C
  H115     1.0000 0.75450  0.47360  0.51220  Biso   1.000  H
  C110     1.0000 0.82876  0.41342  0.50885  Biso   1.000  C
  C111     1.0000 0.89179  0.41460  0.50533  Biso   1.000  C
  H116     1.0000 0.91370  0.37400  0.50500  Biso   1.000  H
  C112     1.0000 0.92193  0.47656  0.50235  Biso   1.000  C
  C113     1.0000 0.88896  0.53679  0.50112  Biso   1.000  C
  H117     1.0000 0.90900  0.57800  0.49810  Biso   1.000  H
  C114     1.0000 0.80047  0.75445  0.57643  Biso   1.000  C
  C115     1.0000 0.81547  0.77262  0.62661  Biso   1.000  C
  C116     1.0000 0.77690  0.74890  0.65666  Biso   1.000  C
  H118     1.0000 0.74360  0.72040  0.64570  Biso   1.000  H
  C117     1.0000 0.78779  0.76740  0.70260  Biso   1.000  C
  C118     1.0000 0.83699  0.81070  0.71930  Biso   1.000  C
  H119     1.0000 0.84380  0.82360  0.75010  Biso   1.000  H
  C119     1.0000 0.87557  0.83436  0.68995  Biso   1.000  C
  C120     1.0000 0.86519  0.81455  0.64377  Biso   1.000  C
  H120     1.0000 0.89190  0.82960  0.62430  Biso   1.000  H
  C121     1.0000 0.92689  0.88404  0.70834  Biso   1.000  C
  C122     1.0000 0.70761  0.70134  0.40892  Biso   1.000  C
  C123     1.0000 0.68832  0.68525  0.35855  Biso   1.000  C
  C124     1.0000 0.71858  0.71660  0.32630  Biso   1.000  C
  H121     1.0000 0.75000  0.74820  0.33560  Biso   1.000  H
  C125     1.0000 0.70147  0.70030  0.27977  Biso   1.000  C
  C126     1.0000 0.65609  0.65190  0.26600  Biso   1.000  C
  H122     1.0000 0.64590  0.64030  0.23500  Biso   1.000  H
  C127     1.0000 0.62560  0.62024  0.29839  Biso   1.000  C
  C128     1.0000 0.64128  0.63812  0.34447  Biso   1.000  C
  H123     1.0000 0.62010  0.61840  0.36620  Biso   1.000  H
  C129     1.0000 0.57771  0.56649  0.28311  Biso   1.000  C
  C130     1.0000 0.89340  0.80690  0.42330  Biso   1.000  C
  H124     1.0000 0.85790  0.82390  0.40490  Biso   1.000  H
  C131     1.0000 0.95160  0.84850  0.36650  Biso   1.000  C
  H125     1.0000 0.95090  0.81640  0.34180  Biso   1.000  H
  H126     1.0000 0.99050  0.87270  0.37100  Biso   1.000  H
  H127     1.0000 0.91790  0.88020  0.35890  Biso   1.000  H
  C132     1.0000 0.00190  0.78900  0.43310  Biso   1.000  C
  H128     1.0000 0.01440  0.81780  0.45940  Biso   1.000  H
  H129     1.0000 0.03350  0.78930  0.41390  Biso   1.000  H
  H130     1.0000 0.99610  0.74330  0.44330  Biso   1.000  H
  C133     1.0000 0.61290  0.69840  0.57300  Biso   1.000  C
  H131     1.0000 0.64480  0.72640  0.58720  Biso   1.000  H
  C134     1.0000 0.79674  0.34581  0.51101  Biso   1.000  C
  C135     1.0000 0.51400  0.64670  0.57460  Biso   1.000  C
  H132     1.0000 0.49490  0.66800  0.54640  Biso   1.000  H
  H133     1.0000 0.48420  0.64320  0.59520  Biso   1.000  H
  H134     1.0000 0.52830  0.60210  0.56810  Biso   1.000  H
  C136     1.0000 0.86870  0.95500  0.83976  Biso   1.000  C
  H135     1.0000 0.85110  0.93700  0.81130  Biso   1.000  H
  C137     1.0000 0.77020  0.93410  0.86490  Biso   1.000  C
  H136     1.0000 0.76570  0.89990  0.88740  Biso   1.000  H
  H137     1.0000 0.76010  0.91500  0.83450  Biso   1.000  H
  H138     1.0000 0.74270  0.97150  0.86790  Biso   1.000  H
  C138     1.0000 0.85490  0.98600  0.91530  Biso   1.000  C
  H139     1.0000 0.89880  0.99460  0.91860  Biso   1.000  H
  H140     1.0000 0.84700  0.95460  0.93870  Biso   1.000  H
  H141     1.0000 0.83330  0.02800  0.91850  Biso   1.000  H
  N28      1.0000 0.53640  0.71960  0.55750  Biso   1.000  N
  C139     1.0000 0.57320  0.71510  0.52770  Biso   1.000  C
  H142     1.0000 0.56720  0.74360  0.50210  Biso   1.000  H
  H143     1.0000 0.49180  0.62230  0.54870  Biso   1.000  H
  H144     1.0000 0.48720  0.65380  0.59700  Biso   1.000  H
  H145     1.0000 0.54980  0.62080  0.58820  Biso   1.000  H
  C140     1.0000 0.48950  0.77440  0.55260  Biso   1.000  C
  H146     1.0000 0.44850  0.75490  0.54670  Biso   1.000  H
  H147     1.0000 0.49530  0.80340  0.52730  Biso   1.000  H
  H148     1.0000 0.49420  0.80070  0.58050  Biso   1.000  H
  Zn13     1.0000 0.30852  0.74248  0.48192  Biso   1.000  Zn
  Zn14     1.0000 0.19250  0.80682  0.50467  Biso   1.000  Zn
  Zn15     1.0000 0.47627  0.52519  0.79514  Biso   1.000  Zn
  O61      1.0000 0.31982  0.84574  0.49187  Biso   1.000  O
  O62      1.0000 0.23647  0.89860  0.51113  Biso   1.000  O
  O63      1.0000 0.33840  0.72829  0.55079  Biso   1.000  O
  O64      1.0000 0.24947  0.77623  0.56391  Biso   1.000  O
  O65      1.0000 0.25601  0.76350  0.41988  Biso   1.000  O
  O66      1.0000 0.17411  0.82283  0.43622  Biso   1.000  O
  O67      1.0000 0.24066  0.15391  0.51607  Biso   1.000  O
  O68      1.0000 0.32905  0.20618  0.50684  Biso   1.000  O
  O69      1.0000 0.38636  0.71879  0.45944  Biso   1.000  O
  O70      1.0000 0.11713  0.82705  0.53247  Biso   1.000  O
  O71      1.0000 0.46484  0.60148  0.68190  Biso   1.000  O
  O72      1.0000 0.42671  0.59279  0.74797  Biso   1.000  O
  O73      1.0000 0.07025  0.94891  0.24097  Biso   1.000  O
  O74      1.0000 0.04943  0.95931  0.31288  Biso   1.000  O
  O75      1.0000 0.42416  0.52550  0.84472  Biso   1.000  O
  N29      1.0000 0.48714  0.02816  0.50026  Biso   1.000  N
  N30      1.0000 0.24560  0.76011  0.72985  Biso   1.000  N
  N31      1.0000 0.22866  0.76963  0.24356  Biso   1.000  N
  N32      1.0000 0.44520  0.68650  0.40761  Biso   1.000  N
  N33      1.0000 0.06440  0.81420  0.59506  Biso   1.000  N
  N34      1.0000 0.33390  0.54170  0.87210  Biso   1.000  N
  C141     1.0000 0.29136  0.89734  0.50244  Biso   1.000  C
  C142     1.0000 0.06570  0.78570  0.64100  Biso   1.000  C
  H149     1.0000 0.10300  0.75940  0.64950  Biso   1.000  H
  H150     1.0000 0.06500  0.82200  0.66280  Biso   1.000  H
  H151     1.0000 0.03000  0.75700  0.64110  Biso   1.000  H
  C143     1.0000 0.32605  0.96376  0.50435  Biso   1.000  C
  C144     1.0000 0.29629  0.02580  0.50900  Biso   1.000  C
  H152     1.0000 0.25450  0.02640  0.51220  Biso   1.000  H
  C145     1.0000 0.32876  0.08658  0.50885  Biso   1.000  C
  C146     1.0000 0.39179  0.08540  0.50533  Biso   1.000  C
  H153     1.0000 0.41370  0.12600  0.50500  Biso   1.000  H
  C147     1.0000 0.42193  0.02344  0.50235  Biso   1.000  C
  C148     1.0000 0.38896  0.96321  0.50112  Biso   1.000  C
  H154     1.0000 0.40900  0.92200  0.49810  Biso   1.000  H
  C149     1.0000 0.30047  0.74555  0.57643  Biso   1.000  C
  C150     1.0000 0.31547  0.72738  0.62661  Biso   1.000  C
  C151     1.0000 0.27690  0.75110  0.65666  Biso   1.000  C
  H155     1.0000 0.24360  0.77960  0.64570  Biso   1.000  H
  C152     1.0000 0.28779  0.73260  0.70260  Biso   1.000  C
  C153     1.0000 0.33699  0.68930  0.71930  Biso   1.000  C
  H156     1.0000 0.34380  0.67640  0.75010  Biso   1.000  H
  C154     1.0000 0.37557  0.66564  0.68995  Biso   1.000  C
  C155     1.0000 0.36519  0.68545  0.64377  Biso   1.000  C
  H157     1.0000 0.39190  0.67040  0.62430  Biso   1.000  H
  C156     1.0000 0.42689  0.61596  0.70834  Biso   1.000  C
  C157     1.0000 0.20761  0.79866  0.40892  Biso   1.000  C
  C158     1.0000 0.18832  0.81475  0.35855  Biso   1.000  C
  C159     1.0000 0.21858  0.78340  0.32630  Biso   1.000  C
  H158     1.0000 0.25000  0.75180  0.33560  Biso   1.000  H
  C160     1.0000 0.20147  0.79970  0.27977  Biso   1.000  C
  C161     1.0000 0.15609  0.84810  0.26600  Biso   1.000  C
  H159     1.0000 0.14590  0.85970  0.23500  Biso   1.000  H
  C162     1.0000 0.12560  0.87976  0.29839  Biso   1.000  C
  C163     1.0000 0.14128  0.86188  0.34447  Biso   1.000  C
  H160     1.0000 0.12010  0.88160  0.36620  Biso   1.000  H
  C164     1.0000 0.07771  0.93351  0.28311  Biso   1.000  C
  C165     1.0000 0.39340  0.69310  0.42330  Biso   1.000  C
  H161     1.0000 0.35790  0.67610  0.40490  Biso   1.000  H
  C166     1.0000 0.45160  0.65150  0.36650  Biso   1.000  C
  H162     1.0000 0.45090  0.68360  0.34180  Biso   1.000  H
  H163     1.0000 0.49050  0.62730  0.37100  Biso   1.000  H
  H164     1.0000 0.41790  0.61980  0.35890  Biso   1.000  H
  C167     1.0000 0.50190  0.71100  0.43310  Biso   1.000  C
  H165     1.0000 0.51440  0.68220  0.45940  Biso   1.000  H
  H166     1.0000 0.53350  0.71070  0.41390  Biso   1.000  H
  H167     1.0000 0.49610  0.75670  0.44330  Biso   1.000  H
  C168     1.0000 0.11290  0.80160  0.57300  Biso   1.000  C
  H168     1.0000 0.14480  0.77360  0.58720  Biso   1.000  H
  C169     1.0000 0.29674  0.15419  0.51101  Biso   1.000  C
  C170     1.0000 0.01400  0.85330  0.57460  Biso   1.000  C
  H169     1.0000 0.99490  0.83200  0.54640  Biso   1.000  H
  H170     1.0000 0.98420  0.85680  0.59520  Biso   1.000  H
  H171     1.0000 0.02830  0.89790  0.56810  Biso   1.000  H
  C171     1.0000 0.36870  0.54500  0.83976  Biso   1.000  C
  H172     1.0000 0.35110  0.56300  0.81130  Biso   1.000  H
  C172     1.0000 0.27020  0.56590  0.86490  Biso   1.000  C
  H173     1.0000 0.26570  0.60010  0.88740  Biso   1.000  H
  H174     1.0000 0.26010  0.58500  0.83450  Biso   1.000  H
  H175     1.0000 0.24270  0.52850  0.86790  Biso   1.000  H
  C173     1.0000 0.35490  0.51400  0.91530  Biso   1.000  C
  H176     1.0000 0.39880  0.50540  0.91860  Biso   1.000  H
  H177     1.0000 0.34700  0.54540  0.93870  Biso   1.000  H
  H178     1.0000 0.33330  0.47200  0.91850  Biso   1.000  H
  N35      1.0000 0.03640  0.78040  0.55750  Biso   1.000  N
  C174     1.0000 0.07320  0.78490  0.52770  Biso   1.000  C
  H179     1.0000 0.06720  0.75640  0.50210  Biso   1.000  H
  H180     1.0000 0.99180  0.87770  0.54870  Biso   1.000  H
  H181     1.0000 0.98720  0.84620  0.59700  Biso   1.000  H
  H182     1.0000 0.04980  0.87920  0.58820  Biso   1.000  H
  C175     1.0000 0.98950  0.72560  0.55260  Biso   1.000  C
  H183     1.0000 0.94850  0.74510  0.54670  Biso   1.000  H
  H184     1.0000 0.99530  0.69660  0.52730  Biso   1.000  H
  H185     1.0000 0.99420  0.69930  0.58050  Biso   1.000  H
  Zn16     1.0000 0.80852  0.24248  0.98192  Biso   1.000  Zn
  Zn17     1.0000 0.69250  0.30682  0.00467  Biso   1.000  Zn
  Zn18     1.0000 0.97627  0.02519  0.29514  Biso   1.000  Zn
  O76      1.0000 0.81982  0.34574  0.99187  Biso   1.000  O
  O77      1.0000 0.73647  0.39860  0.01113  Biso   1.000  O
  O78      1.0000 0.83840  0.22829  0.05079  Biso   1.000  O
  O79      1.0000 0.74947  0.27623  0.06391  Biso   1.000  O
  O80      1.0000 0.75601  0.26350  0.91988  Biso   1.000  O
  O81      1.0000 0.67411  0.32283  0.93622  Biso   1.000  O
  O82      1.0000 0.74066  0.65391  0.01607  Biso   1.000  O
  O83      1.0000 0.82905  0.70618  0.00684  Biso   1.000  O
  O84      1.0000 0.88636  0.21879  0.95944  Biso   1.000  O
  O85      1.0000 0.61713  0.32705  0.03247  Biso   1.000  O
  O86      1.0000 0.96484  0.10148  0.18190  Biso   1.000  O
  O87      1.0000 0.92671  0.09279  0.24797  Biso   1.000  O
  O88      1.0000 0.57025  0.44891  0.74097  Biso   1.000  O
  O89      1.0000 0.54943  0.45931  0.81288  Biso   1.000  O
  O90      1.0000 0.92416  0.02550  0.34472  Biso   1.000  O
  N36      1.0000 0.98714  0.52816  0.00026  Biso   1.000  N
  N37      1.0000 0.74560  0.26011  0.22985  Biso   1.000  N
  N38      1.0000 0.72866  0.26963  0.74356  Biso   1.000  N
  N39      1.0000 0.94520  0.18650  0.90761  Biso   1.000  N
  N40      1.0000 0.56440  0.31420  0.09506  Biso   1.000  N
  N41      1.0000 0.83390  0.04170  0.37210  Biso   1.000  N
  C176     1.0000 0.79136  0.39734  0.00244  Biso   1.000  C
  C177     1.0000 0.56570  0.28570  0.14100  Biso   1.000  C
  H186     1.0000 0.60300  0.25940  0.14950  Biso   1.000  H
  H187     1.0000 0.56500  0.32200  0.16280  Biso   1.000  H
  H188     1.0000 0.53000  0.25700  0.14110  Biso   1.000  H
  C178     1.0000 0.82605  0.46376  0.00435  Biso   1.000  C
  C179     1.0000 0.79629  0.52580  0.00900  Biso   1.000  C
  H189     1.0000 0.75450  0.52640  0.01220  Biso   1.000  H
  C180     1.0000 0.82876  0.58658  0.00885  Biso   1.000  C
  C181     1.0000 0.89179  0.58540  0.00533  Biso   1.000  C
  H190     1.0000 0.91370  0.62600  0.00500  Biso   1.000  H
  C182     1.0000 0.92193  0.52344  0.00235  Biso   1.000  C
  C183     1.0000 0.88896  0.46321  0.00112  Biso   1.000  C
  H191     1.0000 0.90900  0.42200  0.99810  Biso   1.000  H
  C184     1.0000 0.80047  0.24555  0.07643  Biso   1.000  C
  C185     1.0000 0.81547  0.22738  0.12661  Biso   1.000  C
  C186     1.0000 0.77690  0.25110  0.15666  Biso   1.000  C
  H192     1.0000 0.74360  0.27960  0.14570  Biso   1.000  H
  C187     1.0000 0.78779  0.23260  0.20260  Biso   1.000  C
  C188     1.0000 0.83699  0.18930  0.21930  Biso   1.000  C
  H193     1.0000 0.84380  0.17640  0.25010  Biso   1.000  H
  C189     1.0000 0.87557  0.16564  0.18995  Biso   1.000  C
  C190     1.0000 0.86519  0.18545  0.14377  Biso   1.000  C
  H194     1.0000 0.89190  0.17040  0.12430  Biso   1.000  H
  C191     1.0000 0.92689  0.11596  0.20834  Biso   1.000  C
  C192     1.0000 0.70761  0.29866  0.90892  Biso   1.000  C
  C193     1.0000 0.68832  0.31475  0.85855  Biso   1.000  C
  C194     1.0000 0.71858  0.28340  0.82630  Biso   1.000  C
  H195     1.0000 0.75000  0.25180  0.83560  Biso   1.000  H
  C195     1.0000 0.70147  0.29970  0.77977  Biso   1.000  C
  C196     1.0000 0.65609  0.34810  0.76600  Biso   1.000  C
  H196     1.0000 0.64590  0.35970  0.73500  Biso   1.000  H
  C197     1.0000 0.62560  0.37976  0.79839  Biso   1.000  C
  C198     1.0000 0.64128  0.36188  0.84447  Biso   1.000  C
  H197     1.0000 0.62010  0.38160  0.86620  Biso   1.000  H
  C199     1.0000 0.57771  0.43351  0.78311  Biso   1.000  C
  C200     1.0000 0.89340  0.19310  0.92330  Biso   1.000  C
  H198     1.0000 0.85790  0.17610  0.90490  Biso   1.000  H
  C201     1.0000 0.95160  0.15150  0.86650  Biso   1.000  C
  H199     1.0000 0.95090  0.18360  0.84180  Biso   1.000  H
  H200     1.0000 0.99050  0.12730  0.87100  Biso   1.000  H
  H201     1.0000 0.91790  0.11980  0.85890  Biso   1.000  H
  C202     1.0000 0.00190  0.21100  0.93310  Biso   1.000  C
  H202     1.0000 0.01440  0.18220  0.95940  Biso   1.000  H
  H203     1.0000 0.03350  0.21070  0.91390  Biso   1.000  H
  H204     1.0000 0.99610  0.25670  0.94330  Biso   1.000  H
  C203     1.0000 0.61290  0.30160  0.07300  Biso   1.000  C
  H205     1.0000 0.64480  0.27360  0.08720  Biso   1.000  H
  C204     1.0000 0.79674  0.65419  0.01101  Biso   1.000  C
  C205     1.0000 0.51400  0.35330  0.07460  Biso   1.000  C
  H206     1.0000 0.49490  0.33200  0.04640  Biso   1.000  H
  H207     1.0000 0.48420  0.35680  0.09520  Biso   1.000  H
  H208     1.0000 0.52830  0.39790  0.06810  Biso   1.000  H
  C206     1.0000 0.86870  0.04500  0.33976  Biso   1.000  C
  H209     1.0000 0.85110  0.06300  0.31130  Biso   1.000  H
  C207     1.0000 0.77020  0.06590  0.36490  Biso   1.000  C
  H210     1.0000 0.76570  0.10010  0.38740  Biso   1.000  H
  H211     1.0000 0.76010  0.08500  0.33450  Biso   1.000  H
  H212     1.0000 0.74270  0.02850  0.36790  Biso   1.000  H
  C208     1.0000 0.85490  0.01400  0.41530  Biso   1.000  C
  H213     1.0000 0.89880  0.00540  0.41860  Biso   1.000  H
  H214     1.0000 0.84700  0.04540  0.43870  Biso   1.000  H
  H215     1.0000 0.83330  0.97200  0.41850  Biso   1.000  H
  N42      1.0000 0.53640  0.28040  0.05750  Biso   1.000  N
  C209     1.0000 0.57320  0.28490  0.02770  Biso   1.000  C
  H216     1.0000 0.56720  0.25640  0.00210  Biso   1.000  H
  H217     1.0000 0.49180  0.37770  0.04870  Biso   1.000  H
  H218     1.0000 0.48720  0.34620  0.09700  Biso   1.000  H
  H219     1.0000 0.54980  0.37920  0.08820  Biso   1.000  H
  C210     1.0000 0.48950  0.22560  0.05260  Biso   1.000  C
  H220     1.0000 0.44850  0.24510  0.04670  Biso   1.000  H
  H221     1.0000 0.49530  0.19660  0.02730  Biso   1.000  H
  H222     1.0000 0.49420  0.19930  0.08050  Biso   1.000  H
  Zn19     1.0000 0.69148  0.74248  0.01808  Biso   1.000  Zn
  Zn20     1.0000 0.80750  0.80682  0.99533  Biso   1.000  Zn
  Zn21     1.0000 0.52373  0.52519  0.70486  Biso   1.000  Zn
  O91      1.0000 0.68018  0.84574  0.00813  Biso   1.000  O
  O92      1.0000 0.76353  0.89860  0.98887  Biso   1.000  O
  O93      1.0000 0.66160  0.72829  0.94921  Biso   1.000  O
  O94      1.0000 0.75053  0.77623  0.93609  Biso   1.000  O
  O95      1.0000 0.74399  0.76350  0.08012  Biso   1.000  O
  O96      1.0000 0.82589  0.82283  0.06378  Biso   1.000  O
  O97      1.0000 0.75934  0.15391  0.98393  Biso   1.000  O
  O98      1.0000 0.67095  0.20618  0.99316  Biso   1.000  O
  O99      1.0000 0.61364  0.71879  0.04056  Biso   1.000  O
  O100     1.0000 0.88287  0.82705  0.96753  Biso   1.000  O
  O101     1.0000 0.53516  0.60148  0.81810  Biso   1.000  O
  O102     1.0000 0.57329  0.59279  0.75203  Biso   1.000  O
  O103     1.0000 0.92975  0.94891  0.25903  Biso   1.000  O
  O104     1.0000 0.95057  0.95931  0.18712  Biso   1.000  O
  O105     1.0000 0.57584  0.52550  0.65528  Biso   1.000  O
  N43      1.0000 0.51286  0.02816  0.99974  Biso   1.000  N
  N44      1.0000 0.75440  0.76011  0.77015  Biso   1.000  N
  N45      1.0000 0.77134  0.76963  0.25644  Biso   1.000  N
  N46      1.0000 0.55480  0.68650  0.09239  Biso   1.000  N
  N47      1.0000 0.93560  0.81420  0.90494  Biso   1.000  N
  N48      1.0000 0.66610  0.54170  0.62790  Biso   1.000  N
  C211     1.0000 0.70864  0.89734  0.99756  Biso   1.000  C
  C212     1.0000 0.93430  0.78570  0.85900  Biso   1.000  C
  H223     1.0000 0.89700  0.75940  0.85050  Biso   1.000  H
  H224     1.0000 0.93500  0.82200  0.83720  Biso   1.000  H
  H225     1.0000 0.97000  0.75700  0.85890  Biso   1.000  H
  C213     1.0000 0.67395  0.96376  0.99565  Biso   1.000  C
  C214     1.0000 0.70371  0.02580  0.99100  Biso   1.000  C
  H226     1.0000 0.74550  0.02640  0.98780  Biso   1.000  H
  C215     1.0000 0.67124  0.08658  0.99115  Biso   1.000  C
  C216     1.0000 0.60821  0.08540  0.99467  Biso   1.000  C
  H227     1.0000 0.58630  0.12600  0.99500  Biso   1.000  H
  C217     1.0000 0.57807  0.02344  0.99765  Biso   1.000  C
  C218     1.0000 0.61104  0.96321  0.99888  Biso   1.000  C
  H228     1.0000 0.59100  0.92200  0.00190  Biso   1.000  H
  C219     1.0000 0.69953  0.74555  0.92357  Biso   1.000  C
  C220     1.0000 0.68453  0.72738  0.87339  Biso   1.000  C
  C221     1.0000 0.72310  0.75110  0.84334  Biso   1.000  C
  H229     1.0000 0.75640  0.77960  0.85430  Biso   1.000  H
  C222     1.0000 0.71221  0.73260  0.79740  Biso   1.000  C
  C223     1.0000 0.66301  0.68930  0.78070  Biso   1.000  C
  H230     1.0000 0.65620  0.67640  0.74990  Biso   1.000  H
  C224     1.0000 0.62443  0.66564  0.81005  Biso   1.000  C
  C225     1.0000 0.63481  0.68545  0.85623  Biso   1.000  C
  H231     1.0000 0.60810  0.67040  0.87570  Biso   1.000  H
  C226     1.0000 0.57311  0.61596  0.79166  Biso   1.000  C
  C227     1.0000 0.79239  0.79866  0.09108  Biso   1.000  C
  C228     1.0000 0.81168  0.81475  0.14145  Biso   1.000  C
  C229     1.0000 0.78142  0.78340  0.17370  Biso   1.000  C
  H232     1.0000 0.75000  0.75180  0.16440  Biso   1.000  H
  C230     1.0000 0.79853  0.79970  0.22023  Biso   1.000  C
  C231     1.0000 0.84391  0.84810  0.23400  Biso   1.000  C
  H233     1.0000 0.85410  0.85970  0.26500  Biso   1.000  H
  C232     1.0000 0.87440  0.87976  0.20161  Biso   1.000  C
  C233     1.0000 0.85872  0.86188  0.15553  Biso   1.000  C
  H234     1.0000 0.87990  0.88160  0.13380  Biso   1.000  H
  C234     1.0000 0.92229  0.93351  0.21689  Biso   1.000  C
  C235     1.0000 0.60660  0.69310  0.07670  Biso   1.000  C
  H235     1.0000 0.64210  0.67610  0.09510  Biso   1.000  H
  C236     1.0000 0.54840  0.65150  0.13350  Biso   1.000  C
  H236     1.0000 0.54910  0.68360  0.15820  Biso   1.000  H
  H237     1.0000 0.50950  0.62730  0.12900  Biso   1.000  H
  H238     1.0000 0.58210  0.61980  0.14110  Biso   1.000  H
  C237     1.0000 0.49810  0.71100  0.06690  Biso   1.000  C
  H239     1.0000 0.48560  0.68220  0.04060  Biso   1.000  H
  H240     1.0000 0.46650  0.71070  0.08610  Biso   1.000  H
  H241     1.0000 0.50390  0.75670  0.05670  Biso   1.000  H
  C238     1.0000 0.88710  0.80160  0.92700  Biso   1.000  C
  H242     1.0000 0.85520  0.77360  0.91280  Biso   1.000  H
  C239     1.0000 0.70326  0.15419  0.98899  Biso   1.000  C
  C240     1.0000 0.98600  0.85330  0.92540  Biso   1.000  C
  H243     1.0000 0.00510  0.83200  0.95360  Biso   1.000  H
  H244     1.0000 0.01580  0.85680  0.90480  Biso   1.000  H
  H245     1.0000 0.97170  0.89790  0.93190  Biso   1.000  H
  C241     1.0000 0.63130  0.54500  0.66024  Biso   1.000  C
  H246     1.0000 0.64890  0.56300  0.68870  Biso   1.000  H
  C242     1.0000 0.72980  0.56590  0.63510  Biso   1.000  C
  H247     1.0000 0.73430  0.60010  0.61260  Biso   1.000  H
  H248     1.0000 0.73990  0.58500  0.66550  Biso   1.000  H
  H249     1.0000 0.75730  0.52850  0.63210  Biso   1.000  H
  C243     1.0000 0.64510  0.51400  0.58470  Biso   1.000  C
  H250     1.0000 0.60120  0.50540  0.58140  Biso   1.000  H
  H251     1.0000 0.65300  0.54540  0.56130  Biso   1.000  H
  H252     1.0000 0.66670  0.47200  0.58150  Biso   1.000  H
  N49      1.0000 0.96360  0.78040  0.94250  Biso   1.000  N
  C244     1.0000 0.92680  0.78490  0.97230  Biso   1.000  C
  H253     1.0000 0.93280  0.75640  0.99790  Biso   1.000  H
  H254     1.0000 0.00820  0.87770  0.95130  Biso   1.000  H
  H255     1.0000 0.01280  0.84620  0.90300  Biso   1.000  H
  H256     1.0000 0.95020  0.87920  0.91180  Biso   1.000  H
  C245     1.0000 0.01050  0.72560  0.94740  Biso   1.000  C
  H257     1.0000 0.05150  0.74510  0.95330  Biso   1.000  H
  H258     1.0000 0.00470  0.69660  0.97270  Biso   1.000  H
  H259     1.0000 0.00580  0.69930  0.91950  Biso   1.000  H
  Zn22     1.0000 0.19148  0.24248  0.51808  Biso   1.000  Zn
  Zn23     1.0000 0.30750  0.30682  0.49533  Biso   1.000  Zn
  Zn24     1.0000 0.02373  0.02519  0.20486  Biso   1.000  Zn
  O106     1.0000 0.18018  0.34574  0.50813  Biso   1.000  O
  O107     1.0000 0.26353  0.39860  0.48887  Biso   1.000  O
  O108     1.0000 0.16160  0.22829  0.44921  Biso   1.000  O
  O109     1.0000 0.25053  0.27623  0.43609  Biso   1.000  O
  O110     1.0000 0.24399  0.26350  0.58012  Biso   1.000  O
  O111     1.0000 0.32589  0.32283  0.56378  Biso   1.000  O
  O112     1.0000 0.25934  0.65391  0.48393  Biso   1.000  O
  O113     1.0000 0.17095  0.70618  0.49316  Biso   1.000  O
  O114     1.0000 0.11364  0.21879  0.54056  Biso   1.000  O
  O115     1.0000 0.38287  0.32705  0.46753  Biso   1.000  O
  O116     1.0000 0.03516  0.10148  0.31810  Biso   1.000  O
  O117     1.0000 0.07329  0.09279  0.25203  Biso   1.000  O
  O118     1.0000 0.42975  0.44891  0.75903  Biso   1.000  O
  O119     1.0000 0.45057  0.45931  0.68712  Biso   1.000  O
  O120     1.0000 0.07584  0.02550  0.15528  Biso   1.000  O
  N50      1.0000 0.01286  0.52816  0.49974  Biso   1.000  N
  N51      1.0000 0.25440  0.26011  0.27015  Biso   1.000  N
  N52      1.0000 0.27134  0.26963  0.75644  Biso   1.000  N
  N53      1.0000 0.05480  0.18650  0.59239  Biso   1.000  N
  N54      1.0000 0.43560  0.31420  0.40494  Biso   1.000  N
  N55      1.0000 0.16610  0.04170  0.12790  Biso   1.000  N
  C246     1.0000 0.20864  0.39734  0.49756  Biso   1.000  C
  C247     1.0000 0.43430  0.28570  0.35900  Biso   1.000  C
  H260     1.0000 0.39700  0.25940  0.35050  Biso   1.000  H
  H261     1.0000 0.43500  0.32200  0.33720  Biso   1.000  H
  H262     1.0000 0.47000  0.25700  0.35890  Biso   1.000  H
  C248     1.0000 0.17395  0.46376  0.49565  Biso   1.000  C
  C249     1.0000 0.20371  0.52580  0.49100  Biso   1.000  C
  H263     1.0000 0.24550  0.52640  0.48780  Biso   1.000  H
  C250     1.0000 0.17124  0.58658  0.49115  Biso   1.000  C
  C251     1.0000 0.10821  0.58540  0.49467  Biso   1.000  C
  H264     1.0000 0.08630  0.62600  0.49500  Biso   1.000  H
  C252     1.0000 0.07807  0.52344  0.49765  Biso   1.000  C
  C253     1.0000 0.11104  0.46321  0.49888  Biso   1.000  C
  H265     1.0000 0.09100  0.42200  0.50190  Biso   1.000  H
  C254     1.0000 0.19953  0.24555  0.42357  Biso   1.000  C
  C255     1.0000 0.18453  0.22738  0.37339  Biso   1.000  C
  C256     1.0000 0.22310  0.25110  0.34334  Biso   1.000  C
  H266     1.0000 0.25640  0.27960  0.35430  Biso   1.000  H
  C257     1.0000 0.21221  0.23260  0.29740  Biso   1.000  C
  C258     1.0000 0.16301  0.18930  0.28070  Biso   1.000  C
  H267     1.0000 0.15620  0.17640  0.24990  Biso   1.000  H
  C259     1.0000 0.12443  0.16564  0.31005  Biso   1.000  C
  C260     1.0000 0.13481  0.18545  0.35623  Biso   1.000  C
  H268     1.0000 0.10810  0.17040  0.37570  Biso   1.000  H
  C261     1.0000 0.07311  0.11596  0.29166  Biso   1.000  C
  C262     1.0000 0.29239  0.29866  0.59108  Biso   1.000  C
  C263     1.0000 0.31168  0.31475  0.64145  Biso   1.000  C
  C264     1.0000 0.28142  0.28340  0.67370  Biso   1.000  C
  H269     1.0000 0.25000  0.25180  0.66440  Biso   1.000  H
  C265     1.0000 0.29853  0.29970  0.72023  Biso   1.000  C
  C266     1.0000 0.34391  0.34810  0.73400  Biso   1.000  C
  H270     1.0000 0.35410  0.35970  0.76500  Biso   1.000  H
  C267     1.0000 0.37440  0.37976  0.70161  Biso   1.000  C
  C268     1.0000 0.35872  0.36188  0.65553  Biso   1.000  C
  H271     1.0000 0.37990  0.38160  0.63380  Biso   1.000  H
  C269     1.0000 0.42229  0.43351  0.71689  Biso   1.000  C
  C270     1.0000 0.10660  0.19310  0.57670  Biso   1.000  C
  H272     1.0000 0.14210  0.17610  0.59510  Biso   1.000  H
  C271     1.0000 0.04840  0.15150  0.63350  Biso   1.000  C
  H273     1.0000 0.04910  0.18360  0.65820  Biso   1.000  H
  H274     1.0000 0.00950  0.12730  0.62900  Biso   1.000  H
  H275     1.0000 0.08210  0.11980  0.64110  Biso   1.000  H
  C272     1.0000 0.99810  0.21100  0.56690  Biso   1.000  C
  H276     1.0000 0.98560  0.18220  0.54060  Biso   1.000  H
  H277     1.0000 0.96650  0.21070  0.58610  Biso   1.000  H
  H278     1.0000 0.00390  0.25670  0.55670  Biso   1.000  H
  C273     1.0000 0.38710  0.30160  0.42700  Biso   1.000  C
  H279     1.0000 0.35520  0.27360  0.41280  Biso   1.000  H
  C274     1.0000 0.20326  0.65419  0.48899  Biso   1.000  C
  C275     1.0000 0.48600  0.35330  0.42540  Biso   1.000  C
  H280     1.0000 0.50510  0.33200  0.45360  Biso   1.000  H
  H281     1.0000 0.51580  0.35680  0.40480  Biso   1.000  H
  H282     1.0000 0.47170  0.39790  0.43190  Biso   1.000  H
  C276     1.0000 0.13130  0.04500  0.16024  Biso   1.000  C
  H283     1.0000 0.14890  0.06300  0.18870  Biso   1.000  H
  C277     1.0000 0.22980  0.06590  0.13510  Biso   1.000  C
  H284     1.0000 0.23430  0.10010  0.11260  Biso   1.000  H
  H285     1.0000 0.23990  0.08500  0.16550  Biso   1.000  H
  H286     1.0000 0.25730  0.02850  0.13210  Biso   1.000  H
  C278     1.0000 0.14510  0.01400  0.08470  Biso   1.000  C
  H287     1.0000 0.10120  0.00540  0.08140  Biso   1.000  H
  H288     1.0000 0.15300  0.04540  0.06130  Biso   1.000  H
  H289     1.0000 0.16670  0.97200  0.08150  Biso   1.000  H
  N56      1.0000 0.46360  0.28040  0.44250  Biso   1.000  N
  C279     1.0000 0.42680  0.28490  0.47230  Biso   1.000  C
  H290     1.0000 0.43280  0.25640  0.49790  Biso   1.000  H
  H291     1.0000 0.50820  0.37770  0.45130  Biso   1.000  H
  H292     1.0000 0.51280  0.34620  0.40300  Biso   1.000  H
  H293     1.0000 0.45020  0.37920  0.41180  Biso   1.000  H
  C280     1.0000 0.51050  0.22560  0.44740  Biso   1.000  C
  H294     1.0000 0.55150  0.24510  0.45330  Biso   1.000  H
  H295     1.0000 0.50470  0.19660  0.47270  Biso   1.000  H
  H296     1.0000 0.50580  0.19930  0.41950  Biso   1.000  H
