data_image0
_cell_length_a       38.978
_cell_length_b       27.433
_cell_length_c       27.377
_cell_angle_alpha    90
_cell_angle_beta     133.806
_cell_angle_gamma    90

_symmetry_space_group_name_H-M    "P 1"
_symmetry_int_tables_number       1

loop_
  _symmetry_equiv_pos_as_xyz
  'x, y, z'

loop_
  _atom_site_label
  _atom_site_occupancy
  _atom_site_fract_x
  _atom_site_fract_y
  _atom_site_fract_z
  _atom_site_thermal_displace_type
  _atom_site_B_iso_or_equiv
  _atom_site_type_symbol
  Zn1      1.0000 0.04856  0.25313  0.69540  Biso   1.000  Zn
  N1       1.0000 0.97671  0.25864  0.62140  Biso   1.000  N
  O1       1.0000 0.06415  0.31613  0.74764  Biso   1.000  O
  O2       1.0000 0.05517  0.18872  0.66520  Biso   1.000  O
  O3       1.0000 0.06745  0.28775  0.65098  Biso   1.000  O
  O4       1.0000 0.06005  0.21599  0.77010  Biso   1.000  O
  C1       1.0000 0.95121  0.28210  0.63130  Biso   1.000  C
  C2       1.0000 0.95130  0.23720  0.56170  Biso   1.000  C
  C3       1.0000 0.10400  0.32947  0.80060  Biso   1.000  C
  C4       1.0000 0.09350  0.17146  0.68840  Biso   1.000  C
  H1       1.0000 0.96760  0.29770  0.67250  Biso   1.000  H
  C5       1.0000 0.90259  0.28380  0.58350  Biso   1.000  C
  C6       1.0000 0.90260  0.23760  0.51190  Biso   1.000  C
  H2       1.0000 0.96760  0.22090  0.55300  Biso   1.000  H
  C7       1.0000 0.10590  0.37440  0.83420  Biso   1.000  C
  O5       1.0000 0.14289  0.30846  0.83030  Biso   1.000  O
  C8       1.0000 0.09210  0.12810  0.65460  Biso   1.000  C
  O6       1.0000 0.13448  0.18847  0.73920  Biso   1.000  O
  O7       1.0000 0.14566  0.28901  0.73150  Biso   1.000  O
  O8       1.0000 0.13898  0.20734  0.84734  Biso   1.000  O
  H3       1.0000 0.88650  0.30090  0.59190  Biso   1.000  H
  C9       1.0000 0.87764  0.26000  0.52260  Biso   1.000  C
  H4       1.0000 0.88690  0.22250  0.47070  Biso   1.000  H
  C10      1.0000 0.06550  0.39880  0.80700  Biso   1.000  C
  C11      1.0000 0.14850  0.39040  0.89610  Biso   1.000  C
  Zn2      1.0000 0.15291  0.24680  0.79923  Biso   1.000  Zn
  C12      1.0000 0.04870  0.10470  0.60170  Biso   1.000  C
  C13      1.0000 0.13320  0.11030  0.67470  Biso   1.000  C
  C14      1.0000 0.82460  0.25900  0.47080  Biso   1.000  C
  H5       1.0000 0.03670  0.38990  0.76460  Biso   1.000  H
  C15      1.0000 0.06670  0.43700  0.84180  Biso   1.000  C
  C16      1.0000 0.15010  0.42800  0.93200  Biso   1.000  C
  H6       1.0000 0.17670  0.37570  0.91410  Biso   1.000  H
  N2       1.0000 0.22547  0.24242  0.87180  Biso   1.000  N
  H7       1.0000 0.02100  0.11470  0.58990  Biso   1.000  H
  C17      1.0000 0.04740  0.06710  0.56750  Biso   1.000  C
  C18      1.0000 0.13110  0.07030  0.63970  Biso   1.000  C
  H8       1.0000 0.16240  0.12450  0.71100  Biso   1.000  H
  C19      1.0000 0.79930  0.26990  0.48280  Biso   1.000  C
  C20      1.0000 0.79890  0.25020  0.40520  Biso   1.000  C
  H9       1.0000 0.03870  0.45300  0.82230  Biso   1.000  H
  C21      1.0000 0.10900  0.45130  0.90490  Biso   1.000  C
  H10      1.0000 0.17890  0.43720  0.97410  Biso   1.000  H
  H11      1.0000 0.01820  0.05330  0.53070  Biso   1.000  H
  C22      1.0000 0.08940  0.04860  0.58700  Biso   1.000  C
  H12      1.0000 0.15910  0.05880  0.65320  Biso   1.000  H
  C23      1.0000 0.74950  0.26880  0.43150  Biso   1.000  C
  H13      1.0000 0.81410  0.27870  0.52640  Biso   1.000  H
  H14      1.0000 0.81460  0.24300  0.39170  Biso   1.000  H
  C24      1.0000 0.74980  0.25150  0.35700  Biso   1.000  C
  C25      1.0000 0.11100  0.49220  0.94240  Biso   1.000  C
  C26      1.0000 0.08600  0.00920  0.54840  Biso   1.000  C
  H15      1.0000 0.73310  0.27740  0.44360  Biso   1.000  H
  H16      1.0000 0.73380  0.24770  0.31170  Biso   1.000  H
  C27      1.0000 0.13120  0.48140  0.00770  Biso   1.000  C
  C28      1.0000 0.07920  0.52890  0.90450  Biso   1.000  C
  C29      1.0000 0.11410  0.97080  0.58180  Biso   1.000  C
  C30      1.0000 0.04960  0.00490  0.47750  Biso   1.000  C
  C31      1.0000 0.14000  0.52000  0.04550  Biso   1.000  C
  O9       1.0000 0.16990  0.45040  0.04130  Biso   1.000  O
  C32      1.0000 0.08510  0.56590  0.95400  Biso   1.000  C
  H17      1.0000 0.05780  0.53170  0.85760  Biso   1.000  H
  C33      1.0000 0.10460  0.92870  0.53150  Biso   1.000  C
  H18      1.0000 0.13680  0.96820  0.62880  Biso   1.000  H
  C34      1.0000 0.05290  0.97350  0.44250  Biso   1.000  C
  O10      1.0000 0.01520  0.03850  0.43820  Biso   1.000  O
  H19      1.0000 0.16620  0.51820  0.09190  Biso   1.000  H
  C35      1.0000 0.11160  0.56360  0.01920  Biso   1.000  C
  C36      1.0000 0.20830  0.44900  0.12000  Biso   1.000  C
  O11      1.0000 0.04820  0.60950  0.90300  Biso   1.000  O
  C37      1.0000 0.08910  0.93560  0.47650  Biso   1.000  C
  O12      1.0000 0.13740  0.90800  0.57310  Biso   1.000  O
  H20      1.0000 0.03140  0.97630  0.39570  Biso   1.000  H
  C38      1.0000 0.98000  0.04000  0.35270  Biso   1.000  C
  C39      1.0000 0.10980  0.60110  0.05530  Biso   1.000  C
  H21      1.0000 0.20000  0.46940  0.13940  Biso   1.000  H
  H22      1.0000 0.21470  0.41610  0.13740  Biso   1.000  H
  C40      1.0000 0.24920  0.47000  0.13090  Biso   1.000  C
  C41      1.0000 0.01330  0.61160  0.83030  Biso   1.000  C
  C42      1.0000 0.09200  0.89860  0.44120  Biso   1.000  C
  H23      1.0000 0.99790  0.06110  0.34860  Biso   1.000  H
  H24      1.0000 0.98430  0.00750  0.34360  Biso   1.000  H
  C43      1.0000 0.93000  0.05120  0.28960  Biso   1.000  C
  C44      1.0000 0.06800  0.61890  0.03130  Biso   1.000  C
  C45      1.0000 0.15170  0.61840  0.11650  Biso   1.000  C
  H25      1.0000 0.27230  0.47670  0.17910  Biso   1.000  H
  H26      1.0000 0.23670  0.50180  0.10970  Biso   1.000  H
  C46      1.0000 0.28190  0.45860  0.11890  Biso   1.000  C
  H27      1.0000 0.02490  0.59960  0.81060  Biso   1.000  H
  H28      1.0000 0.98350  0.59610  0.80950  Biso   1.000  H
  C47      1.0000 0.01140  0.66980  0.83150  Biso   1.000  C
  C48      1.0000 0.05090  0.87570  0.38180  Biso   1.000  C
  C49      1.0000 0.13450  0.88720  0.46100  Biso   1.000  C
  H29      1.0000 0.91830  0.03020  0.25220  Biso   1.000  H
  H30      1.0000 0.90850  0.05030  0.29610  Biso   1.000  H
  C50      1.0000 0.93900  0.09880  0.28230  Biso   1.000  C
  C51      1.0000 0.06610  0.65030  0.07000  Biso   1.000  C
  H31      1.0000 0.03990  0.61010  0.98800  Biso   1.000  H
  H32      1.0000 0.18070  0.60910  0.13180  Biso   1.000  H
  C52      1.0000 0.15060  0.65010  0.15570  Biso   1.000  C
  H33      1.0000 0.27490  0.48280  0.08720  Biso   1.000  H
  H34      1.0000 0.31430  0.46450  0.16150  Biso   1.000  H
  C53      1.0000 0.28180  0.42040  0.09920  Biso   1.000  C
  H35      1.0000 0.98490  0.67710  0.78390  Biso   1.000  H
  H36      1.0000 0.99900  0.67470  0.85190  Biso   1.000  H
  C54      1.0000 0.04570  0.72000  0.85810  Biso   1.000  C
  C55      1.0000 0.05190  0.84330  0.34460  Biso   1.000  C
  H37      1.0000 0.02170  0.88290  0.36730  Biso   1.000  H
  H38      1.0000 0.16260  0.90060  0.50050  Biso   1.000  H
  C56      1.0000 0.13610  0.85570  0.42270  Biso   1.000  C
  H39      1.0000 0.91190  0.11940  0.26270  Biso   1.000  H
  H40      1.0000 0.94390  0.09880  0.25210  Biso   1.000  H
  C57      1.0000 0.98170  0.11800  0.34920  Biso   1.000  C
  H41      1.0000 0.03690  0.66040  0.05360  Biso   1.000  H
  C58      1.0000 0.10790  0.66610  0.13260  Biso   1.000  C
  H42      1.0000 0.17890  0.66040  0.19770  Biso   1.000  H
  H43      1.0000 0.30440  0.42070  0.09510  Biso   1.000  H
  H44      1.0000 0.25060  0.41390  0.05580  Biso   1.000  H
  H45      1.0000 0.29030  0.39550  0.13060  Biso   1.000  H
  H46      1.0000 0.02680  0.74880  0.84600  Biso   1.000  H
  H47      1.0000 0.05660  0.72170  0.83530  Biso   1.000  H
  C59      1.0000 0.08610  0.71950  0.93000  Biso   1.000  C
  C60      1.0000 0.09649  0.83424  0.36640  Biso   1.000  C
  H48      1.0000 0.02440  0.82800  0.30660  Biso   1.000  H
  H49      1.0000 0.16510  0.84940  0.43630  Biso   1.000  H
  H50      1.0000 0.98780  0.15060  0.34420  Biso   1.000  H
  H51      1.0000 0.00850  0.09770  0.36820  Biso   1.000  H
  H52      1.0000 0.97650  0.11830  0.37870  Biso   1.000  H
  C61      1.0000 0.10690  0.69870  0.17460  Biso   1.000  C
  H53      1.0000 0.10460  0.74840  0.94320  Biso   1.000  H
  H54      1.0000 0.07540  0.71850  0.95280  Biso   1.000  H
  H55      1.0000 0.10520  0.69130  0.94210  Biso   1.000  H
  C62      1.0000 0.09864  0.80102  0.32420  Biso   1.000  C
  Zn3      1.0000 0.54856  0.75313  0.69540  Biso   1.000  Zn
  N3       1.0000 0.47671  0.75864  0.62140  Biso   1.000  N
  O13      1.0000 0.56415  0.81613  0.74764  Biso   1.000  O
  O14      1.0000 0.55517  0.68872  0.66520  Biso   1.000  O
  O15      1.0000 0.56745  0.78775  0.65098  Biso   1.000  O
  O16      1.0000 0.56005  0.71599  0.77010  Biso   1.000  O
  C63      1.0000 0.45121  0.78210  0.63130  Biso   1.000  C
  C64      1.0000 0.45130  0.73720  0.56170  Biso   1.000  C
  C65      1.0000 0.60400  0.82947  0.80060  Biso   1.000  C
  C66      1.0000 0.59350  0.67146  0.68840  Biso   1.000  C
  H56      1.0000 0.46760  0.79770  0.67250  Biso   1.000  H
  C67      1.0000 0.40259  0.78380  0.58350  Biso   1.000  C
  C68      1.0000 0.40260  0.73760  0.51190  Biso   1.000  C
  H57      1.0000 0.46760  0.72090  0.55300  Biso   1.000  H
  C69      1.0000 0.60590  0.87440  0.83420  Biso   1.000  C
  O17      1.0000 0.64289  0.80846  0.83030  Biso   1.000  O
  C70      1.0000 0.59210  0.62810  0.65460  Biso   1.000  C
  O18      1.0000 0.63448  0.68847  0.73920  Biso   1.000  O
  O19      1.0000 0.64566  0.78901  0.73150  Biso   1.000  O
  O20      1.0000 0.63898  0.70734  0.84734  Biso   1.000  O
  H58      1.0000 0.38650  0.80090  0.59190  Biso   1.000  H
  C71      1.0000 0.37764  0.76000  0.52260  Biso   1.000  C
  H59      1.0000 0.38690  0.72250  0.47070  Biso   1.000  H
  C72      1.0000 0.56550  0.89880  0.80700  Biso   1.000  C
  C73      1.0000 0.64850  0.89040  0.89610  Biso   1.000  C
  Zn4      1.0000 0.65291  0.74680  0.79923  Biso   1.000  Zn
  C74      1.0000 0.54870  0.60470  0.60170  Biso   1.000  C
  C75      1.0000 0.63320  0.61030  0.67470  Biso   1.000  C
  C76      1.0000 0.32460  0.75900  0.47080  Biso   1.000  C
  H60      1.0000 0.53670  0.88990  0.76460  Biso   1.000  H
  C77      1.0000 0.56670  0.93700  0.84180  Biso   1.000  C
  C78      1.0000 0.65010  0.92800  0.93200  Biso   1.000  C
  H61      1.0000 0.67670  0.87570  0.91410  Biso   1.000  H
  N4       1.0000 0.72547  0.74242  0.87180  Biso   1.000  N
  H62      1.0000 0.52100  0.61470  0.58990  Biso   1.000  H
  C79      1.0000 0.54740  0.56710  0.56750  Biso   1.000  C
  C80      1.0000 0.63110  0.57030  0.63970  Biso   1.000  C
  H63      1.0000 0.66240  0.62450  0.71100  Biso   1.000  H
  C81      1.0000 0.29930  0.76990  0.48280  Biso   1.000  C
  C82      1.0000 0.29890  0.75020  0.40520  Biso   1.000  C
  H64      1.0000 0.53870  0.95300  0.82230  Biso   1.000  H
  C83      1.0000 0.60900  0.95130  0.90490  Biso   1.000  C
  H65      1.0000 0.67890  0.93720  0.97410  Biso   1.000  H
  H66      1.0000 0.51820  0.55330  0.53070  Biso   1.000  H
  C84      1.0000 0.58940  0.54860  0.58700  Biso   1.000  C
  H67      1.0000 0.65910  0.55880  0.65320  Biso   1.000  H
  C85      1.0000 0.24950  0.76880  0.43150  Biso   1.000  C
  H68      1.0000 0.31410  0.77870  0.52640  Biso   1.000  H
  H69      1.0000 0.31460  0.74300  0.39170  Biso   1.000  H
  C86      1.0000 0.24980  0.75150  0.35700  Biso   1.000  C
  C87      1.0000 0.61100  0.99220  0.94240  Biso   1.000  C
  C88      1.0000 0.58600  0.50920  0.54840  Biso   1.000  C
  H70      1.0000 0.23310  0.77740  0.44360  Biso   1.000  H
  H71      1.0000 0.23380  0.74770  0.31170  Biso   1.000  H
  C89      1.0000 0.63120  0.98140  0.00770  Biso   1.000  C
  C90      1.0000 0.57920  0.02890  0.90450  Biso   1.000  C
  C91      1.0000 0.61410  0.47080  0.58180  Biso   1.000  C
  C92      1.0000 0.54960  0.50490  0.47750  Biso   1.000  C
  C93      1.0000 0.64000  0.02000  0.04550  Biso   1.000  C
  O21      1.0000 0.66990  0.95040  0.04130  Biso   1.000  O
  C94      1.0000 0.58510  0.06590  0.95400  Biso   1.000  C
  H72      1.0000 0.55780  0.03170  0.85760  Biso   1.000  H
  C95      1.0000 0.60460  0.42870  0.53150  Biso   1.000  C
  H73      1.0000 0.63680  0.46820  0.62880  Biso   1.000  H
  C96      1.0000 0.55290  0.47350  0.44250  Biso   1.000  C
  O22      1.0000 0.51520  0.53850  0.43820  Biso   1.000  O
  H74      1.0000 0.66620  0.01820  0.09190  Biso   1.000  H
  C97      1.0000 0.61160  0.06360  0.01920  Biso   1.000  C
  C98      1.0000 0.70830  0.94900  0.12000  Biso   1.000  C
  O23      1.0000 0.54820  0.10950  0.90300  Biso   1.000  O
  C99      1.0000 0.58910  0.43560  0.47650  Biso   1.000  C
  O24      1.0000 0.63740  0.40800  0.57310  Biso   1.000  O
  H75      1.0000 0.53140  0.47630  0.39570  Biso   1.000  H
  C100     1.0000 0.48000  0.54000  0.35270  Biso   1.000  C
  C101     1.0000 0.60980  0.10110  0.05530  Biso   1.000  C
  H76      1.0000 0.70000  0.96940  0.13940  Biso   1.000  H
  H77      1.0000 0.71470  0.91610  0.13740  Biso   1.000  H
  C102     1.0000 0.74920  0.97000  0.13090  Biso   1.000  C
  C103     1.0000 0.51330  0.11160  0.83030  Biso   1.000  C
  C104     1.0000 0.59200  0.39860  0.44120  Biso   1.000  C
  H78      1.0000 0.49790  0.56110  0.34860  Biso   1.000  H
  H79      1.0000 0.48430  0.50750  0.34360  Biso   1.000  H
  C105     1.0000 0.43000  0.55120  0.28960  Biso   1.000  C
  C106     1.0000 0.56800  0.11890  0.03130  Biso   1.000  C
  C107     1.0000 0.65170  0.11840  0.11650  Biso   1.000  C
  H80      1.0000 0.77230  0.97670  0.17910  Biso   1.000  H
  H81      1.0000 0.73670  0.00180  0.10970  Biso   1.000  H
  C108     1.0000 0.78190  0.95860  0.11890  Biso   1.000  C
  H82      1.0000 0.52490  0.09960  0.81060  Biso   1.000  H
  H83      1.0000 0.48350  0.09610  0.80950  Biso   1.000  H
  C109     1.0000 0.51140  0.16980  0.83150  Biso   1.000  C
  C110     1.0000 0.55090  0.37570  0.38180  Biso   1.000  C
  C111     1.0000 0.63450  0.38720  0.46100  Biso   1.000  C
  H84      1.0000 0.41830  0.53020  0.25220  Biso   1.000  H
  H85      1.0000 0.40850  0.55030  0.29610  Biso   1.000  H
  C112     1.0000 0.43900  0.59880  0.28230  Biso   1.000  C
  C113     1.0000 0.56610  0.15030  0.07000  Biso   1.000  C
  H86      1.0000 0.53990  0.11010  0.98800  Biso   1.000  H
  H87      1.0000 0.68070  0.10910  0.13180  Biso   1.000  H
  C114     1.0000 0.65060  0.15010  0.15570  Biso   1.000  C
  H88      1.0000 0.77490  0.98280  0.08720  Biso   1.000  H
  H89      1.0000 0.81430  0.96450  0.16150  Biso   1.000  H
  C115     1.0000 0.78180  0.92040  0.09920  Biso   1.000  C
  H90      1.0000 0.48490  0.17710  0.78390  Biso   1.000  H
  H91      1.0000 0.49900  0.17470  0.85190  Biso   1.000  H
  C116     1.0000 0.54570  0.22000  0.85810  Biso   1.000  C
  C117     1.0000 0.55190  0.34330  0.34460  Biso   1.000  C
  H92      1.0000 0.52170  0.38290  0.36730  Biso   1.000  H
  H93      1.0000 0.66260  0.40060  0.50050  Biso   1.000  H
  C118     1.0000 0.63610  0.35570  0.42270  Biso   1.000  C
  H94      1.0000 0.41190  0.61940  0.26270  Biso   1.000  H
  H95      1.0000 0.44390  0.59880  0.25210  Biso   1.000  H
  C119     1.0000 0.48170  0.61800  0.34920  Biso   1.000  C
  H96      1.0000 0.53690  0.16040  0.05360  Biso   1.000  H
  C120     1.0000 0.60790  0.16610  0.13260  Biso   1.000  C
  H97      1.0000 0.67890  0.16040  0.19770  Biso   1.000  H
  H98      1.0000 0.80440  0.92070  0.09510  Biso   1.000  H
  H99      1.0000 0.75060  0.91390  0.05580  Biso   1.000  H
  H100     1.0000 0.79030  0.89550  0.13060  Biso   1.000  H
  H101     1.0000 0.52680  0.24880  0.84600  Biso   1.000  H
  H102     1.0000 0.55660  0.22170  0.83530  Biso   1.000  H
  C121     1.0000 0.58610  0.21950  0.93000  Biso   1.000  C
  C122     1.0000 0.59649  0.33424  0.36640  Biso   1.000  C
  H103     1.0000 0.52440  0.32800  0.30660  Biso   1.000  H
  H104     1.0000 0.66510  0.34940  0.43630  Biso   1.000  H
  H105     1.0000 0.48780  0.65060  0.34420  Biso   1.000  H
  H106     1.0000 0.50850  0.59770  0.36820  Biso   1.000  H
  H107     1.0000 0.47650  0.61830  0.37870  Biso   1.000  H
  C123     1.0000 0.60690  0.19870  0.17460  Biso   1.000  C
  H108     1.0000 0.60460  0.24840  0.94320  Biso   1.000  H
  H109     1.0000 0.57540  0.21850  0.95280  Biso   1.000  H
  H110     1.0000 0.60520  0.19130  0.94210  Biso   1.000  H
  C124     1.0000 0.59864  0.30102  0.32420  Biso   1.000  C
  Zn5      1.0000 0.04856  0.74687  0.19540  Biso   1.000  Zn
  N5       1.0000 0.97671  0.74136  0.12140  Biso   1.000  N
  O25      1.0000 0.06415  0.68387  0.24764  Biso   1.000  O
  O26      1.0000 0.05517  0.81128  0.16520  Biso   1.000  O
  O27      1.0000 0.06745  0.71225  0.15098  Biso   1.000  O
  O28      1.0000 0.06005  0.78401  0.27010  Biso   1.000  O
  C125     1.0000 0.95121  0.71790  0.13130  Biso   1.000  C
  C126     1.0000 0.95130  0.76280  0.06170  Biso   1.000  C
  C127     1.0000 0.10400  0.67053  0.30060  Biso   1.000  C
  C128     1.0000 0.09350  0.82854  0.18840  Biso   1.000  C
  H111     1.0000 0.96760  0.70230  0.17250  Biso   1.000  H
  C129     1.0000 0.90259  0.71620  0.08350  Biso   1.000  C
  C130     1.0000 0.90260  0.76240  0.01190  Biso   1.000  C
  H112     1.0000 0.96760  0.77910  0.05300  Biso   1.000  H
  C131     1.0000 0.10590  0.62560  0.33420  Biso   1.000  C
  O29      1.0000 0.14289  0.69154  0.33030  Biso   1.000  O
  C132     1.0000 0.09210  0.87190  0.15460  Biso   1.000  C
  O30      1.0000 0.13448  0.81153  0.23920  Biso   1.000  O
  O31      1.0000 0.14566  0.71099  0.23150  Biso   1.000  O
  O32      1.0000 0.13898  0.79266  0.34734  Biso   1.000  O
  H113     1.0000 0.88650  0.69910  0.09190  Biso   1.000  H
  C133     1.0000 0.87764  0.74000  0.02260  Biso   1.000  C
  H114     1.0000 0.88690  0.77750  0.97070  Biso   1.000  H
  C134     1.0000 0.06550  0.60120  0.30700  Biso   1.000  C
  C135     1.0000 0.14850  0.60960  0.39610  Biso   1.000  C
  Zn6      1.0000 0.15291  0.75320  0.29923  Biso   1.000  Zn
  C136     1.0000 0.04870  0.89530  0.10170  Biso   1.000  C
  C137     1.0000 0.13320  0.88970  0.17470  Biso   1.000  C
  C138     1.0000 0.82460  0.74100  0.97080  Biso   1.000  C
  H115     1.0000 0.03670  0.61010  0.26460  Biso   1.000  H
  C139     1.0000 0.06670  0.56300  0.34180  Biso   1.000  C
  C140     1.0000 0.15010  0.57200  0.43200  Biso   1.000  C
  H116     1.0000 0.17670  0.62430  0.41410  Biso   1.000  H
  N6       1.0000 0.22547  0.75758  0.37180  Biso   1.000  N
  H117     1.0000 0.02100  0.88530  0.08990  Biso   1.000  H
  C141     1.0000 0.04740  0.93290  0.06750  Biso   1.000  C
  C142     1.0000 0.13110  0.92970  0.13970  Biso   1.000  C
  H118     1.0000 0.16240  0.87550  0.21100  Biso   1.000  H
  C143     1.0000 0.79930  0.73010  0.98280  Biso   1.000  C
  C144     1.0000 0.79890  0.74980  0.90520  Biso   1.000  C
  H119     1.0000 0.03870  0.54700  0.32230  Biso   1.000  H
  C145     1.0000 0.10900  0.54870  0.40490  Biso   1.000  C
  H120     1.0000 0.17890  0.56280  0.47410  Biso   1.000  H
  H121     1.0000 0.01820  0.94670  0.03070  Biso   1.000  H
  C146     1.0000 0.08940  0.95140  0.08700  Biso   1.000  C
  H122     1.0000 0.15910  0.94120  0.15320  Biso   1.000  H
  C147     1.0000 0.74950  0.73120  0.93150  Biso   1.000  C
  H123     1.0000 0.81410  0.72130  0.02640  Biso   1.000  H
  H124     1.0000 0.81460  0.75700  0.89170  Biso   1.000  H
  C148     1.0000 0.74980  0.74850  0.85700  Biso   1.000  C
  C149     1.0000 0.11100  0.50780  0.44240  Biso   1.000  C
  C150     1.0000 0.08600  0.99080  0.04840  Biso   1.000  C
  H125     1.0000 0.73310  0.72260  0.94360  Biso   1.000  H
  H126     1.0000 0.73380  0.75230  0.81170  Biso   1.000  H
  C151     1.0000 0.13120  0.51860  0.50770  Biso   1.000  C
  C152     1.0000 0.07920  0.47110  0.40450  Biso   1.000  C
  C153     1.0000 0.11410  0.02920  0.08180  Biso   1.000  C
  C154     1.0000 0.04960  0.99510  0.97750  Biso   1.000  C
  C155     1.0000 0.14000  0.48000  0.54550  Biso   1.000  C
  O33      1.0000 0.16990  0.54960  0.54130  Biso   1.000  O
  C156     1.0000 0.08510  0.43410  0.45400  Biso   1.000  C
  H127     1.0000 0.05780  0.46830  0.35760  Biso   1.000  H
  C157     1.0000 0.10460  0.07130  0.03150  Biso   1.000  C
  H128     1.0000 0.13680  0.03180  0.12880  Biso   1.000  H
  C158     1.0000 0.05290  0.02650  0.94250  Biso   1.000  C
  O34      1.0000 0.01520  0.96150  0.93820  Biso   1.000  O
  H129     1.0000 0.16620  0.48180  0.59190  Biso   1.000  H
  C159     1.0000 0.11160  0.43640  0.51920  Biso   1.000  C
  C160     1.0000 0.20830  0.55100  0.62000  Biso   1.000  C
  O35      1.0000 0.04820  0.39050  0.40300  Biso   1.000  O
  C161     1.0000 0.08910  0.06440  0.97650  Biso   1.000  C
  O36      1.0000 0.13740  0.09200  0.07310  Biso   1.000  O
  H130     1.0000 0.03140  0.02370  0.89570  Biso   1.000  H
  C162     1.0000 0.98000  0.96000  0.85270  Biso   1.000  C
  C163     1.0000 0.10980  0.39890  0.55530  Biso   1.000  C
  H131     1.0000 0.20000  0.53060  0.63940  Biso   1.000  H
  H132     1.0000 0.21470  0.58390  0.63740  Biso   1.000  H
  C164     1.0000 0.24920  0.53000  0.63090  Biso   1.000  C
  C165     1.0000 0.01330  0.38840  0.33030  Biso   1.000  C
  C166     1.0000 0.09200  0.10140  0.94120  Biso   1.000  C
  H133     1.0000 0.99790  0.93890  0.84860  Biso   1.000  H
  H134     1.0000 0.98430  0.99250  0.84360  Biso   1.000  H
  C167     1.0000 0.93000  0.94880  0.78960  Biso   1.000  C
  C168     1.0000 0.06800  0.38110  0.53130  Biso   1.000  C
  C169     1.0000 0.15170  0.38160  0.61650  Biso   1.000  C
  H135     1.0000 0.27230  0.52330  0.67910  Biso   1.000  H
  H136     1.0000 0.23670  0.49820  0.60970  Biso   1.000  H
  C170     1.0000 0.28190  0.54140  0.61890  Biso   1.000  C
  H137     1.0000 0.02490  0.40040  0.31060  Biso   1.000  H
  H138     1.0000 0.98350  0.40390  0.30950  Biso   1.000  H
  C171     1.0000 0.01140  0.33020  0.33150  Biso   1.000  C
  C172     1.0000 0.05090  0.12430  0.88180  Biso   1.000  C
  C173     1.0000 0.13450  0.11280  0.96100  Biso   1.000  C
  H139     1.0000 0.91830  0.96980  0.75220  Biso   1.000  H
  H140     1.0000 0.90850  0.94970  0.79610  Biso   1.000  H
  C174     1.0000 0.93900  0.90120  0.78230  Biso   1.000  C
  C175     1.0000 0.06610  0.34970  0.57000  Biso   1.000  C
  H141     1.0000 0.03990  0.38990  0.48800  Biso   1.000  H
  H142     1.0000 0.18070  0.39090  0.63180  Biso   1.000  H
  C176     1.0000 0.15060  0.34990  0.65570  Biso   1.000  C
  H143     1.0000 0.27490  0.51720  0.58720  Biso   1.000  H
  H144     1.0000 0.31430  0.53550  0.66150  Biso   1.000  H
  C177     1.0000 0.28180  0.57960  0.59920  Biso   1.000  C
  H145     1.0000 0.98490  0.32290  0.28390  Biso   1.000  H
  H146     1.0000 0.99900  0.32530  0.35190  Biso   1.000  H
  C178     1.0000 0.04570  0.28000  0.35810  Biso   1.000  C
  C179     1.0000 0.05190  0.15670  0.84460  Biso   1.000  C
  H147     1.0000 0.02170  0.11710  0.86730  Biso   1.000  H
  H148     1.0000 0.16260  0.09940  0.00050  Biso   1.000  H
  C180     1.0000 0.13610  0.14430  0.92270  Biso   1.000  C
  H149     1.0000 0.91190  0.88060  0.76270  Biso   1.000  H
  H150     1.0000 0.94390  0.90120  0.75210  Biso   1.000  H
  C181     1.0000 0.98170  0.88200  0.84920  Biso   1.000  C
  H151     1.0000 0.03690  0.33960  0.55360  Biso   1.000  H
  C182     1.0000 0.10790  0.33390  0.63260  Biso   1.000  C
  H152     1.0000 0.17890  0.33960  0.69770  Biso   1.000  H
  H153     1.0000 0.30440  0.57930  0.59510  Biso   1.000  H
  H154     1.0000 0.25060  0.58610  0.55580  Biso   1.000  H
  H155     1.0000 0.29030  0.60450  0.63060  Biso   1.000  H
  H156     1.0000 0.02680  0.25120  0.34600  Biso   1.000  H
  H157     1.0000 0.05660  0.27830  0.33530  Biso   1.000  H
  C183     1.0000 0.08610  0.28050  0.43000  Biso   1.000  C
  C184     1.0000 0.09649  0.16576  0.86640  Biso   1.000  C
  H158     1.0000 0.02440  0.17200  0.80660  Biso   1.000  H
  H159     1.0000 0.16510  0.15060  0.93630  Biso   1.000  H
  H160     1.0000 0.98780  0.84940  0.84420  Biso   1.000  H
  H161     1.0000 0.00850  0.90230  0.86820  Biso   1.000  H
  H162     1.0000 0.97650  0.88170  0.87870  Biso   1.000  H
  C185     1.0000 0.10690  0.30130  0.67460  Biso   1.000  C
  H163     1.0000 0.10460  0.25160  0.44320  Biso   1.000  H
  H164     1.0000 0.07540  0.28150  0.45280  Biso   1.000  H
  H165     1.0000 0.10520  0.30870  0.44210  Biso   1.000  H
  C186     1.0000 0.09864  0.19898  0.82420  Biso   1.000  C
  Zn7      1.0000 0.54856  0.24687  0.19540  Biso   1.000  Zn
  N7       1.0000 0.47671  0.24136  0.12140  Biso   1.000  N
  O37      1.0000 0.56415  0.18387  0.24764  Biso   1.000  O
  O38      1.0000 0.55517  0.31128  0.16520  Biso   1.000  O
  O39      1.0000 0.56745  0.21225  0.15098  Biso   1.000  O
  O40      1.0000 0.56005  0.28401  0.27010  Biso   1.000  O
  C187     1.0000 0.45121  0.21790  0.13130  Biso   1.000  C
  C188     1.0000 0.45130  0.26280  0.06170  Biso   1.000  C
  C189     1.0000 0.60400  0.17053  0.30060  Biso   1.000  C
  C190     1.0000 0.59350  0.32854  0.18840  Biso   1.000  C
  H166     1.0000 0.46760  0.20230  0.17250  Biso   1.000  H
  C191     1.0000 0.40259  0.21620  0.08350  Biso   1.000  C
  C192     1.0000 0.40260  0.26240  0.01190  Biso   1.000  C
  H167     1.0000 0.46760  0.27910  0.05300  Biso   1.000  H
  C193     1.0000 0.60590  0.12560  0.33420  Biso   1.000  C
  O41      1.0000 0.64289  0.19154  0.33030  Biso   1.000  O
  C194     1.0000 0.59210  0.37190  0.15460  Biso   1.000  C
  O42      1.0000 0.63448  0.31153  0.23920  Biso   1.000  O
  O43      1.0000 0.64566  0.21099  0.23150  Biso   1.000  O
  O44      1.0000 0.63898  0.29266  0.34734  Biso   1.000  O
  H168     1.0000 0.38650  0.19910  0.09190  Biso   1.000  H
  C195     1.0000 0.37764  0.24000  0.02260  Biso   1.000  C
  H169     1.0000 0.38690  0.27750  0.97070  Biso   1.000  H
  C196     1.0000 0.56550  0.10120  0.30700  Biso   1.000  C
  C197     1.0000 0.64850  0.10960  0.39610  Biso   1.000  C
  Zn8      1.0000 0.65291  0.25320  0.29923  Biso   1.000  Zn
  C198     1.0000 0.54870  0.39530  0.10170  Biso   1.000  C
  C199     1.0000 0.63320  0.38970  0.17470  Biso   1.000  C
  C200     1.0000 0.32460  0.24100  0.97080  Biso   1.000  C
  H170     1.0000 0.53670  0.11010  0.26460  Biso   1.000  H
  C201     1.0000 0.56670  0.06300  0.34180  Biso   1.000  C
  C202     1.0000 0.65010  0.07200  0.43200  Biso   1.000  C
  H171     1.0000 0.67670  0.12430  0.41410  Biso   1.000  H
  N8       1.0000 0.72547  0.25758  0.37180  Biso   1.000  N
  H172     1.0000 0.52100  0.38530  0.08990  Biso   1.000  H
  C203     1.0000 0.54740  0.43290  0.06750  Biso   1.000  C
  C204     1.0000 0.63110  0.42970  0.13970  Biso   1.000  C
  H173     1.0000 0.66240  0.37550  0.21100  Biso   1.000  H
  C205     1.0000 0.29930  0.23010  0.98280  Biso   1.000  C
  C206     1.0000 0.29890  0.24980  0.90520  Biso   1.000  C
  H174     1.0000 0.53870  0.04700  0.32230  Biso   1.000  H
  C207     1.0000 0.60900  0.04870  0.40490  Biso   1.000  C
  H175     1.0000 0.67890  0.06280  0.47410  Biso   1.000  H
  H176     1.0000 0.51820  0.44670  0.03070  Biso   1.000  H
  C208     1.0000 0.58940  0.45140  0.08700  Biso   1.000  C
  H177     1.0000 0.65910  0.44120  0.15320  Biso   1.000  H
  C209     1.0000 0.24950  0.23120  0.93150  Biso   1.000  C
  H178     1.0000 0.31410  0.22130  0.02640  Biso   1.000  H
  H179     1.0000 0.31460  0.25700  0.89170  Biso   1.000  H
  C210     1.0000 0.24980  0.24850  0.85700  Biso   1.000  C
  C211     1.0000 0.61100  0.00780  0.44240  Biso   1.000  C
  C212     1.0000 0.58600  0.49080  0.04840  Biso   1.000  C
  H180     1.0000 0.23310  0.22260  0.94360  Biso   1.000  H
  H181     1.0000 0.23380  0.25230  0.81170  Biso   1.000  H
  C213     1.0000 0.63120  0.01860  0.50770  Biso   1.000  C
  C214     1.0000 0.57920  0.97110  0.40450  Biso   1.000  C
  C215     1.0000 0.61410  0.52920  0.08180  Biso   1.000  C
  C216     1.0000 0.54960  0.49510  0.97750  Biso   1.000  C
  C217     1.0000 0.64000  0.98000  0.54550  Biso   1.000  C
  O45      1.0000 0.66990  0.04960  0.54130  Biso   1.000  O
  C218     1.0000 0.58510  0.93410  0.45400  Biso   1.000  C
  H182     1.0000 0.55780  0.96830  0.35760  Biso   1.000  H
  C219     1.0000 0.60460  0.57130  0.03150  Biso   1.000  C
  H183     1.0000 0.63680  0.53180  0.12880  Biso   1.000  H
  C220     1.0000 0.55290  0.52650  0.94250  Biso   1.000  C
  O46      1.0000 0.51520  0.46150  0.93820  Biso   1.000  O
  H184     1.0000 0.66620  0.98180  0.59190  Biso   1.000  H
  C221     1.0000 0.61160  0.93640  0.51920  Biso   1.000  C
  C222     1.0000 0.70830  0.05100  0.62000  Biso   1.000  C
  O47      1.0000 0.54820  0.89050  0.40300  Biso   1.000  O
  C223     1.0000 0.58910  0.56440  0.97650  Biso   1.000  C
  O48      1.0000 0.63740  0.59200  0.07310  Biso   1.000  O
  H185     1.0000 0.53140  0.52370  0.89570  Biso   1.000  H
  C224     1.0000 0.48000  0.46000  0.85270  Biso   1.000  C
  C225     1.0000 0.60980  0.89890  0.55530  Biso   1.000  C
  H186     1.0000 0.70000  0.03060  0.63940  Biso   1.000  H
  H187     1.0000 0.71470  0.08390  0.63740  Biso   1.000  H
  C226     1.0000 0.74920  0.03000  0.63090  Biso   1.000  C
  C227     1.0000 0.51330  0.88840  0.33030  Biso   1.000  C
  C228     1.0000 0.59200  0.60140  0.94120  Biso   1.000  C
  H188     1.0000 0.49790  0.43890  0.84860  Biso   1.000  H
  H189     1.0000 0.48430  0.49250  0.84360  Biso   1.000  H
  C229     1.0000 0.43000  0.44880  0.78960  Biso   1.000  C
  C230     1.0000 0.56800  0.88110  0.53130  Biso   1.000  C
  C231     1.0000 0.65170  0.88160  0.61650  Biso   1.000  C
  H190     1.0000 0.77230  0.02330  0.67910  Biso   1.000  H
  H191     1.0000 0.73670  0.99820  0.60970  Biso   1.000  H
  C232     1.0000 0.78190  0.04140  0.61890  Biso   1.000  C
  H192     1.0000 0.52490  0.90040  0.31060  Biso   1.000  H
  H193     1.0000 0.48350  0.90390  0.30950  Biso   1.000  H
  C233     1.0000 0.51140  0.83020  0.33150  Biso   1.000  C
  C234     1.0000 0.55090  0.62430  0.88180  Biso   1.000  C
  C235     1.0000 0.63450  0.61280  0.96100  Biso   1.000  C
  H194     1.0000 0.41830  0.46980  0.75220  Biso   1.000  H
  H195     1.0000 0.40850  0.44970  0.79610  Biso   1.000  H
  C236     1.0000 0.43900  0.40120  0.78230  Biso   1.000  C
  C237     1.0000 0.56610  0.84970  0.57000  Biso   1.000  C
  H196     1.0000 0.53990  0.88990  0.48800  Biso   1.000  H
  H197     1.0000 0.68070  0.89090  0.63180  Biso   1.000  H
  C238     1.0000 0.65060  0.84990  0.65570  Biso   1.000  C
  H198     1.0000 0.77490  0.01720  0.58720  Biso   1.000  H
  H199     1.0000 0.81430  0.03550  0.66150  Biso   1.000  H
  C239     1.0000 0.78180  0.07960  0.59920  Biso   1.000  C
  H200     1.0000 0.48490  0.82290  0.28390  Biso   1.000  H
  H201     1.0000 0.49900  0.82530  0.35190  Biso   1.000  H
  C240     1.0000 0.54570  0.78000  0.35810  Biso   1.000  C
  C241     1.0000 0.55190  0.65670  0.84460  Biso   1.000  C
  H202     1.0000 0.52170  0.61710  0.86730  Biso   1.000  H
  H203     1.0000 0.66260  0.59940  0.00050  Biso   1.000  H
  C242     1.0000 0.63610  0.64430  0.92270  Biso   1.000  C
  H204     1.0000 0.41190  0.38060  0.76270  Biso   1.000  H
  H205     1.0000 0.44390  0.40120  0.75210  Biso   1.000  H
  C243     1.0000 0.48170  0.38200  0.84920  Biso   1.000  C
  H206     1.0000 0.53690  0.83960  0.55360  Biso   1.000  H
  C244     1.0000 0.60790  0.83390  0.63260  Biso   1.000  C
  H207     1.0000 0.67890  0.83960  0.69770  Biso   1.000  H
  H208     1.0000 0.80440  0.07930  0.59510  Biso   1.000  H
  H209     1.0000 0.75060  0.08610  0.55580  Biso   1.000  H
  H210     1.0000 0.79030  0.10450  0.63060  Biso   1.000  H
  H211     1.0000 0.52680  0.75120  0.34600  Biso   1.000  H
  H212     1.0000 0.55660  0.77830  0.33530  Biso   1.000  H
  C245     1.0000 0.58610  0.78050  0.43000  Biso   1.000  C
  C246     1.0000 0.59649  0.66576  0.86640  Biso   1.000  C
  H213     1.0000 0.52440  0.67200  0.80660  Biso   1.000  H
  H214     1.0000 0.66510  0.65060  0.93630  Biso   1.000  H
  H215     1.0000 0.48780  0.34940  0.84420  Biso   1.000  H
  H216     1.0000 0.50850  0.40230  0.86820  Biso   1.000  H
  H217     1.0000 0.47650  0.38170  0.87870  Biso   1.000  H
  C247     1.0000 0.60690  0.80130  0.67460  Biso   1.000  C
  H218     1.0000 0.60460  0.75160  0.44320  Biso   1.000  H
  H219     1.0000 0.57540  0.78150  0.45280  Biso   1.000  H
  H220     1.0000 0.60520  0.80870  0.44210  Biso   1.000  H
  C248     1.0000 0.59864  0.69898  0.82420  Biso   1.000  C
  Zn9      1.0000 0.95144  0.25313  0.80460  Biso   1.000  Zn
  N9       1.0000 0.02329  0.25864  0.87860  Biso   1.000  N
  O49      1.0000 0.93585  0.31613  0.75236  Biso   1.000  O
  O50      1.0000 0.94483  0.18872  0.83480  Biso   1.000  O
  O51      1.0000 0.93255  0.28775  0.84902  Biso   1.000  O
  O52      1.0000 0.93995  0.21599  0.72990  Biso   1.000  O
  C249     1.0000 0.04879  0.28210  0.86870  Biso   1.000  C
  C250     1.0000 0.04870  0.23720  0.93830  Biso   1.000  C
  C251     1.0000 0.89600  0.32947  0.69940  Biso   1.000  C
  C252     1.0000 0.90650  0.17146  0.81160  Biso   1.000  C
  H221     1.0000 0.03240  0.29770  0.82750  Biso   1.000  H
  C253     1.0000 0.09741  0.28380  0.91650  Biso   1.000  C
  C254     1.0000 0.09740  0.23760  0.98810  Biso   1.000  C
  H222     1.0000 0.03240  0.22090  0.94700  Biso   1.000  H
  C255     1.0000 0.89410  0.37440  0.66580  Biso   1.000  C
  O53      1.0000 0.85711  0.30846  0.66970  Biso   1.000  O
  C256     1.0000 0.90790  0.12810  0.84540  Biso   1.000  C
  O54      1.0000 0.86552  0.18847  0.76080  Biso   1.000  O
  O55      1.0000 0.85434  0.28901  0.76850  Biso   1.000  O
  O56      1.0000 0.86102  0.20734  0.65266  Biso   1.000  O
  H223     1.0000 0.11350  0.30090  0.90810  Biso   1.000  H
  C257     1.0000 0.12236  0.26000  0.97740  Biso   1.000  C
  H224     1.0000 0.11310  0.22250  0.02930  Biso   1.000  H
  C258     1.0000 0.93450  0.39880  0.69300  Biso   1.000  C
  C259     1.0000 0.85150  0.39040  0.60390  Biso   1.000  C
  Zn10     1.0000 0.84709  0.24680  0.70077  Biso   1.000  Zn
  C260     1.0000 0.95130  0.10470  0.89830  Biso   1.000  C
  C261     1.0000 0.86680  0.11030  0.82530  Biso   1.000  C
  C262     1.0000 0.17540  0.25900  0.02920  Biso   1.000  C
  H225     1.0000 0.96330  0.38990  0.73540  Biso   1.000  H
  C263     1.0000 0.93330  0.43700  0.65820  Biso   1.000  C
  C264     1.0000 0.84990  0.42800  0.56800  Biso   1.000  C
  H226     1.0000 0.82330  0.37570  0.58590  Biso   1.000  H
  N10      1.0000 0.77453  0.24242  0.62820  Biso   1.000  N
  H227     1.0000 0.97900  0.11470  0.91010  Biso   1.000  H
  C265     1.0000 0.95260  0.06710  0.93250  Biso   1.000  C
  C266     1.0000 0.86890  0.07030  0.86030  Biso   1.000  C
  H228     1.0000 0.83760  0.12450  0.78900  Biso   1.000  H
  C267     1.0000 0.20070  0.26990  0.01720  Biso   1.000  C
  C268     1.0000 0.20110  0.25020  0.09480  Biso   1.000  C
  H229     1.0000 0.96130  0.45300  0.67770  Biso   1.000  H
  C269     1.0000 0.89100  0.45130  0.59510  Biso   1.000  C
  H230     1.0000 0.82110  0.43720  0.52590  Biso   1.000  H
  H231     1.0000 0.98180  0.05330  0.96930  Biso   1.000  H
  C270     1.0000 0.91060  0.04860  0.91300  Biso   1.000  C
  H232     1.0000 0.84090  0.05880  0.84680  Biso   1.000  H
  C271     1.0000 0.25050  0.26880  0.06850  Biso   1.000  C
  H233     1.0000 0.18590  0.27870  0.97360  Biso   1.000  H
  H234     1.0000 0.18540  0.24300  0.10830  Biso   1.000  H
  C272     1.0000 0.25020  0.25150  0.14300  Biso   1.000  C
  C273     1.0000 0.88900  0.49220  0.55760  Biso   1.000  C
  C274     1.0000 0.91400  0.00920  0.95160  Biso   1.000  C
  H235     1.0000 0.26690  0.27740  0.05640  Biso   1.000  H
  H236     1.0000 0.26620  0.24770  0.18830  Biso   1.000  H
  C275     1.0000 0.86880  0.48140  0.49230  Biso   1.000  C
  C276     1.0000 0.92080  0.52890  0.59550  Biso   1.000  C
  C277     1.0000 0.88590  0.97080  0.91820  Biso   1.000  C
  C278     1.0000 0.95040  0.00490  0.02250  Biso   1.000  C
  C279     1.0000 0.86000  0.52000  0.45450  Biso   1.000  C
  O57      1.0000 0.83010  0.45040  0.45870  Biso   1.000  O
  C280     1.0000 0.91490  0.56590  0.54600  Biso   1.000  C
  H237     1.0000 0.94220  0.53170  0.64240  Biso   1.000  H
  C281     1.0000 0.89540  0.92870  0.96850  Biso   1.000  C
  H238     1.0000 0.86320  0.96820  0.87120  Biso   1.000  H
  C282     1.0000 0.94710  0.97350  0.05750  Biso   1.000  C
  O58      1.0000 0.98480  0.03850  0.06180  Biso   1.000  O
  H239     1.0000 0.83380  0.51820  0.40810  Biso   1.000  H
  C283     1.0000 0.88840  0.56360  0.48080  Biso   1.000  C
  C284     1.0000 0.79170  0.44900  0.38000  Biso   1.000  C
  O59      1.0000 0.95180  0.60950  0.59700  Biso   1.000  O
  C285     1.0000 0.91090  0.93560  0.02350  Biso   1.000  C
  O60      1.0000 0.86260  0.90800  0.92690  Biso   1.000  O
  H240     1.0000 0.96860  0.97630  0.10430  Biso   1.000  H
  C286     1.0000 0.02000  0.04000  0.14730  Biso   1.000  C
  C287     1.0000 0.89020  0.60110  0.44470  Biso   1.000  C
  H241     1.0000 0.80000  0.46940  0.36060  Biso   1.000  H
  H242     1.0000 0.78530  0.41610  0.36260  Biso   1.000  H
  C288     1.0000 0.75080  0.47000  0.36910  Biso   1.000  C
  C289     1.0000 0.98670  0.61160  0.66970  Biso   1.000  C
  C290     1.0000 0.90800  0.89860  0.05880  Biso   1.000  C
  H243     1.0000 0.00210  0.06110  0.15140  Biso   1.000  H
  H244     1.0000 0.01570  0.00750  0.15640  Biso   1.000  H
  C291     1.0000 0.07000  0.05120  0.21040  Biso   1.000  C
  C292     1.0000 0.93200  0.61890  0.46870  Biso   1.000  C
  C293     1.0000 0.84830  0.61840  0.38350  Biso   1.000  C
  H245     1.0000 0.72770  0.47670  0.32090  Biso   1.000  H
  H246     1.0000 0.76330  0.50180  0.39030  Biso   1.000  H
  C294     1.0000 0.71810  0.45860  0.38110  Biso   1.000  C
  H247     1.0000 0.97510  0.59960  0.68940  Biso   1.000  H
  H248     1.0000 0.01650  0.59610  0.69050  Biso   1.000  H
  C295     1.0000 0.98860  0.66980  0.66850  Biso   1.000  C
  C296     1.0000 0.94910  0.87570  0.11820  Biso   1.000  C
  C297     1.0000 0.86550  0.88720  0.03900  Biso   1.000  C
  H249     1.0000 0.08170  0.03020  0.24780  Biso   1.000  H
  H250     1.0000 0.09150  0.05030  0.20390  Biso   1.000  H
  C298     1.0000 0.06100  0.09880  0.21770  Biso   1.000  C
  C299     1.0000 0.93390  0.65030  0.43000  Biso   1.000  C
  H251     1.0000 0.96010  0.61010  0.51200  Biso   1.000  H
  H252     1.0000 0.81930  0.60910  0.36820  Biso   1.000  H
  C300     1.0000 0.84940  0.65010  0.34430  Biso   1.000  C
  H253     1.0000 0.72510  0.48280  0.41280  Biso   1.000  H
  H254     1.0000 0.68570  0.46450  0.33850  Biso   1.000  H
  C301     1.0000 0.71820  0.42040  0.40080  Biso   1.000  C
  H255     1.0000 0.01510  0.67710  0.71610  Biso   1.000  H
  H256     1.0000 0.00100  0.67470  0.64810  Biso   1.000  H
  C302     1.0000 0.95430  0.72000  0.64190  Biso   1.000  C
  C303     1.0000 0.94810  0.84330  0.15540  Biso   1.000  C
  H257     1.0000 0.97830  0.88290  0.13270  Biso   1.000  H
  H258     1.0000 0.83740  0.90060  0.99950  Biso   1.000  H
  C304     1.0000 0.86390  0.85570  0.07730  Biso   1.000  C
  H259     1.0000 0.08810  0.11940  0.23730  Biso   1.000  H
  H260     1.0000 0.05610  0.09880  0.24790  Biso   1.000  H
  C305     1.0000 0.01830  0.11800  0.15080  Biso   1.000  C
  H261     1.0000 0.96310  0.66040  0.44640  Biso   1.000  H
  C306     1.0000 0.89210  0.66610  0.36740  Biso   1.000  C
  H262     1.0000 0.82110  0.66040  0.30230  Biso   1.000  H
  H263     1.0000 0.69560  0.42070  0.40490  Biso   1.000  H
  H264     1.0000 0.74940  0.41390  0.44420  Biso   1.000  H
  H265     1.0000 0.70970  0.39550  0.36940  Biso   1.000  H
  H266     1.0000 0.97320  0.74880  0.65400  Biso   1.000  H
  H267     1.0000 0.94340  0.72170  0.66470  Biso   1.000  H
  C307     1.0000 0.91390  0.71950  0.57000  Biso   1.000  C
  C308     1.0000 0.90351  0.83424  0.13360  Biso   1.000  C
  H268     1.0000 0.97560  0.82800  0.19340  Biso   1.000  H
  H269     1.0000 0.83490  0.84940  0.06370  Biso   1.000  H
  H270     1.0000 0.01220  0.15060  0.15580  Biso   1.000  H
  H271     1.0000 0.99150  0.09770  0.13180  Biso   1.000  H
  H272     1.0000 0.02350  0.11830  0.12130  Biso   1.000  H
  C309     1.0000 0.89310  0.69870  0.32540  Biso   1.000  C
  H273     1.0000 0.89540  0.74840  0.55680  Biso   1.000  H
  H274     1.0000 0.92460  0.71850  0.54720  Biso   1.000  H
  H275     1.0000 0.89480  0.69130  0.55790  Biso   1.000  H
  C310     1.0000 0.90136  0.80102  0.17580  Biso   1.000  C
  Zn11     1.0000 0.45144  0.75313  0.80460  Biso   1.000  Zn
  N11      1.0000 0.52329  0.75864  0.87860  Biso   1.000  N
  O61      1.0000 0.43585  0.81613  0.75236  Biso   1.000  O
  O62      1.0000 0.44483  0.68872  0.83480  Biso   1.000  O
  O63      1.0000 0.43255  0.78775  0.84902  Biso   1.000  O
  O64      1.0000 0.43995  0.71599  0.72990  Biso   1.000  O
  C311     1.0000 0.54879  0.78210  0.86870  Biso   1.000  C
  C312     1.0000 0.54870  0.73720  0.93830  Biso   1.000  C
  C313     1.0000 0.39600  0.82947  0.69940  Biso   1.000  C
  C314     1.0000 0.40650  0.67146  0.81160  Biso   1.000  C
  H276     1.0000 0.53240  0.79770  0.82750  Biso   1.000  H
  C315     1.0000 0.59741  0.78380  0.91650  Biso   1.000  C
  C316     1.0000 0.59740  0.73760  0.98810  Biso   1.000  C
  H277     1.0000 0.53240  0.72090  0.94700  Biso   1.000  H
  C317     1.0000 0.39410  0.87440  0.66580  Biso   1.000  C
  O65      1.0000 0.35711  0.80846  0.66970  Biso   1.000  O
  C318     1.0000 0.40790  0.62810  0.84540  Biso   1.000  C
  O66      1.0000 0.36552  0.68847  0.76080  Biso   1.000  O
  O67      1.0000 0.35434  0.78901  0.76850  Biso   1.000  O
  O68      1.0000 0.36102  0.70734  0.65266  Biso   1.000  O
  H278     1.0000 0.61350  0.80090  0.90810  Biso   1.000  H
  C319     1.0000 0.62236  0.76000  0.97740  Biso   1.000  C
  H279     1.0000 0.61310  0.72250  0.02930  Biso   1.000  H
  C320     1.0000 0.43450  0.89880  0.69300  Biso   1.000  C
  C321     1.0000 0.35150  0.89040  0.60390  Biso   1.000  C
  Zn12     1.0000 0.34709  0.74680  0.70077  Biso   1.000  Zn
  C322     1.0000 0.45130  0.60470  0.89830  Biso   1.000  C
  C323     1.0000 0.36680  0.61030  0.82530  Biso   1.000  C
  C324     1.0000 0.67540  0.75900  0.02920  Biso   1.000  C
  H280     1.0000 0.46330  0.88990  0.73540  Biso   1.000  H
  C325     1.0000 0.43330  0.93700  0.65820  Biso   1.000  C
  C326     1.0000 0.34990  0.92800  0.56800  Biso   1.000  C
  H281     1.0000 0.32330  0.87570  0.58590  Biso   1.000  H
  N12      1.0000 0.27453  0.74242  0.62820  Biso   1.000  N
  H282     1.0000 0.47900  0.61470  0.91010  Biso   1.000  H
  C327     1.0000 0.45260  0.56710  0.93250  Biso   1.000  C
  C328     1.0000 0.36890  0.57030  0.86030  Biso   1.000  C
  H283     1.0000 0.33760  0.62450  0.78900  Biso   1.000  H
  C329     1.0000 0.70070  0.76990  0.01720  Biso   1.000  C
  C330     1.0000 0.70110  0.75020  0.09480  Biso   1.000  C
  H284     1.0000 0.46130  0.95300  0.67770  Biso   1.000  H
  C331     1.0000 0.39100  0.95130  0.59510  Biso   1.000  C
  H285     1.0000 0.32110  0.93720  0.52590  Biso   1.000  H
  H286     1.0000 0.48180  0.55330  0.96930  Biso   1.000  H
  C332     1.0000 0.41060  0.54860  0.91300  Biso   1.000  C
  H287     1.0000 0.34090  0.55880  0.84680  Biso   1.000  H
  C333     1.0000 0.75050  0.76880  0.06850  Biso   1.000  C
  H288     1.0000 0.68590  0.77870  0.97360  Biso   1.000  H
  H289     1.0000 0.68540  0.74300  0.10830  Biso   1.000  H
  C334     1.0000 0.75020  0.75150  0.14300  Biso   1.000  C
  C335     1.0000 0.38900  0.99220  0.55760  Biso   1.000  C
  C336     1.0000 0.41400  0.50920  0.95160  Biso   1.000  C
  H290     1.0000 0.76690  0.77740  0.05640  Biso   1.000  H
  H291     1.0000 0.76620  0.74770  0.18830  Biso   1.000  H
  C337     1.0000 0.36880  0.98140  0.49230  Biso   1.000  C
  C338     1.0000 0.42080  0.02890  0.59550  Biso   1.000  C
  C339     1.0000 0.38590  0.47080  0.91820  Biso   1.000  C
  C340     1.0000 0.45040  0.50490  0.02250  Biso   1.000  C
  C341     1.0000 0.36000  0.02000  0.45450  Biso   1.000  C
  O69      1.0000 0.33010  0.95040  0.45870  Biso   1.000  O
  C342     1.0000 0.41490  0.06590  0.54600  Biso   1.000  C
  H292     1.0000 0.44220  0.03170  0.64240  Biso   1.000  H
  C343     1.0000 0.39540  0.42870  0.96850  Biso   1.000  C
  H293     1.0000 0.36320  0.46820  0.87120  Biso   1.000  H
  C344     1.0000 0.44710  0.47350  0.05750  Biso   1.000  C
  O70      1.0000 0.48480  0.53850  0.06180  Biso   1.000  O
  H294     1.0000 0.33380  0.01820  0.40810  Biso   1.000  H
  C345     1.0000 0.38840  0.06360  0.48080  Biso   1.000  C
  C346     1.0000 0.29170  0.94900  0.38000  Biso   1.000  C
  O71      1.0000 0.45180  0.10950  0.59700  Biso   1.000  O
  C347     1.0000 0.41090  0.43560  0.02350  Biso   1.000  C
  O72      1.0000 0.36260  0.40800  0.92690  Biso   1.000  O
  H295     1.0000 0.46860  0.47630  0.10430  Biso   1.000  H
  C348     1.0000 0.52000  0.54000  0.14730  Biso   1.000  C
  C349     1.0000 0.39020  0.10110  0.44470  Biso   1.000  C
  H296     1.0000 0.30000  0.96940  0.36060  Biso   1.000  H
  H297     1.0000 0.28530  0.91610  0.36260  Biso   1.000  H
  C350     1.0000 0.25080  0.97000  0.36910  Biso   1.000  C
  C351     1.0000 0.48670  0.11160  0.66970  Biso   1.000  C
  C352     1.0000 0.40800  0.39860  0.05880  Biso   1.000  C
  H298     1.0000 0.50210  0.56110  0.15140  Biso   1.000  H
  H299     1.0000 0.51570  0.50750  0.15640  Biso   1.000  H
  C353     1.0000 0.57000  0.55120  0.21040  Biso   1.000  C
  C354     1.0000 0.43200  0.11890  0.46870  Biso   1.000  C
  C355     1.0000 0.34830  0.11840  0.38350  Biso   1.000  C
  H300     1.0000 0.22770  0.97670  0.32090  Biso   1.000  H
  H301     1.0000 0.26330  0.00180  0.39030  Biso   1.000  H
  C356     1.0000 0.21810  0.95860  0.38110  Biso   1.000  C
  H302     1.0000 0.47510  0.09960  0.68940  Biso   1.000  H
  H303     1.0000 0.51650  0.09610  0.69050  Biso   1.000  H
  C357     1.0000 0.48860  0.16980  0.66850  Biso   1.000  C
  C358     1.0000 0.44910  0.37570  0.11820  Biso   1.000  C
  C359     1.0000 0.36550  0.38720  0.03900  Biso   1.000  C
  H304     1.0000 0.58170  0.53020  0.24780  Biso   1.000  H
  H305     1.0000 0.59150  0.55030  0.20390  Biso   1.000  H
  C360     1.0000 0.56100  0.59880  0.21770  Biso   1.000  C
  C361     1.0000 0.43390  0.15030  0.43000  Biso   1.000  C
  H306     1.0000 0.46010  0.11010  0.51200  Biso   1.000  H
  H307     1.0000 0.31930  0.10910  0.36820  Biso   1.000  H
  C362     1.0000 0.34940  0.15010  0.34430  Biso   1.000  C
  H308     1.0000 0.22510  0.98280  0.41280  Biso   1.000  H
  H309     1.0000 0.18570  0.96450  0.33850  Biso   1.000  H
  C363     1.0000 0.21820  0.92040  0.40080  Biso   1.000  C
  H310     1.0000 0.51510  0.17710  0.71610  Biso   1.000  H
  H311     1.0000 0.50100  0.17470  0.64810  Biso   1.000  H
  C364     1.0000 0.45430  0.22000  0.64190  Biso   1.000  C
  C365     1.0000 0.44810  0.34330  0.15540  Biso   1.000  C
  H312     1.0000 0.47830  0.38290  0.13270  Biso   1.000  H
  H313     1.0000 0.33740  0.40060  0.99950  Biso   1.000  H
  C366     1.0000 0.36390  0.35570  0.07730  Biso   1.000  C
  H314     1.0000 0.58810  0.61940  0.23730  Biso   1.000  H
  H315     1.0000 0.55610  0.59880  0.24790  Biso   1.000  H
  C367     1.0000 0.51830  0.61800  0.15080  Biso   1.000  C
  H316     1.0000 0.46310  0.16040  0.44640  Biso   1.000  H
  C368     1.0000 0.39210  0.16610  0.36740  Biso   1.000  C
  H317     1.0000 0.32110  0.16040  0.30230  Biso   1.000  H
  H318     1.0000 0.19560  0.92070  0.40490  Biso   1.000  H
  H319     1.0000 0.24940  0.91390  0.44420  Biso   1.000  H
  H320     1.0000 0.20970  0.89550  0.36940  Biso   1.000  H
  H321     1.0000 0.47320  0.24880  0.65400  Biso   1.000  H
  H322     1.0000 0.44340  0.22170  0.66470  Biso   1.000  H
  C369     1.0000 0.41390  0.21950  0.57000  Biso   1.000  C
  C370     1.0000 0.40351  0.33424  0.13360  Biso   1.000  C
  H323     1.0000 0.47560  0.32800  0.19340  Biso   1.000  H
  H324     1.0000 0.33490  0.34940  0.06370  Biso   1.000  H
  H325     1.0000 0.51220  0.65060  0.15580  Biso   1.000  H
  H326     1.0000 0.49150  0.59770  0.13180  Biso   1.000  H
  H327     1.0000 0.52350  0.61830  0.12130  Biso   1.000  H
  C371     1.0000 0.39310  0.19870  0.32540  Biso   1.000  C
  H328     1.0000 0.39540  0.24840  0.55680  Biso   1.000  H
  H329     1.0000 0.42460  0.21850  0.54720  Biso   1.000  H
  H330     1.0000 0.39480  0.19130  0.55790  Biso   1.000  H
  C372     1.0000 0.40136  0.30102  0.17580  Biso   1.000  C
  Zn13     1.0000 0.95144  0.74687  0.30460  Biso   1.000  Zn
  N13      1.0000 0.02329  0.74136  0.37860  Biso   1.000  N
  O73      1.0000 0.93585  0.68387  0.25236  Biso   1.000  O
  O74      1.0000 0.94483  0.81128  0.33480  Biso   1.000  O
  O75      1.0000 0.93255  0.71225  0.34902  Biso   1.000  O
  O76      1.0000 0.93995  0.78401  0.22990  Biso   1.000  O
  C373     1.0000 0.04879  0.71790  0.36870  Biso   1.000  C
  C374     1.0000 0.04870  0.76280  0.43830  Biso   1.000  C
  C375     1.0000 0.89600  0.67053  0.19940  Biso   1.000  C
  C376     1.0000 0.90650  0.82854  0.31160  Biso   1.000  C
  H331     1.0000 0.03240  0.70230  0.32750  Biso   1.000  H
  C377     1.0000 0.09741  0.71620  0.41650  Biso   1.000  C
  C378     1.0000 0.09740  0.76240  0.48810  Biso   1.000  C
  H332     1.0000 0.03240  0.77910  0.44700  Biso   1.000  H
  C379     1.0000 0.89410  0.62560  0.16580  Biso   1.000  C
  O77      1.0000 0.85711  0.69154  0.16970  Biso   1.000  O
  C380     1.0000 0.90790  0.87190  0.34540  Biso   1.000  C
  O78      1.0000 0.86552  0.81153  0.26080  Biso   1.000  O
  O79      1.0000 0.85434  0.71099  0.26850  Biso   1.000  O
  O80      1.0000 0.86102  0.79266  0.15266  Biso   1.000  O
  H333     1.0000 0.11350  0.69910  0.40810  Biso   1.000  H
  C381     1.0000 0.12236  0.74000  0.47740  Biso   1.000  C
  H334     1.0000 0.11310  0.77750  0.52930  Biso   1.000  H
  C382     1.0000 0.93450  0.60120  0.19300  Biso   1.000  C
  C383     1.0000 0.85150  0.60960  0.10390  Biso   1.000  C
  Zn14     1.0000 0.84709  0.75320  0.20077  Biso   1.000  Zn
  C384     1.0000 0.95130  0.89530  0.39830  Biso   1.000  C
  C385     1.0000 0.86680  0.88970  0.32530  Biso   1.000  C
  C386     1.0000 0.17540  0.74100  0.52920  Biso   1.000  C
  H335     1.0000 0.96330  0.61010  0.23540  Biso   1.000  H
  C387     1.0000 0.93330  0.56300  0.15820  Biso   1.000  C
  C388     1.0000 0.84990  0.57200  0.06800  Biso   1.000  C
  H336     1.0000 0.82330  0.62430  0.08590  Biso   1.000  H
  N14      1.0000 0.77453  0.75758  0.12820  Biso   1.000  N
  H337     1.0000 0.97900  0.88530  0.41010  Biso   1.000  H
  C389     1.0000 0.95260  0.93290  0.43250  Biso   1.000  C
  C390     1.0000 0.86890  0.92970  0.36030  Biso   1.000  C
  H338     1.0000 0.83760  0.87550  0.28900  Biso   1.000  H
  C391     1.0000 0.20070  0.73010  0.51720  Biso   1.000  C
  C392     1.0000 0.20110  0.74980  0.59480  Biso   1.000  C
  H339     1.0000 0.96130  0.54700  0.17770  Biso   1.000  H
  C393     1.0000 0.89100  0.54870  0.09510  Biso   1.000  C
  H340     1.0000 0.82110  0.56280  0.02590  Biso   1.000  H
  H341     1.0000 0.98180  0.94670  0.46930  Biso   1.000  H
  C394     1.0000 0.91060  0.95140  0.41300  Biso   1.000  C
  H342     1.0000 0.84090  0.94120  0.34680  Biso   1.000  H
  C395     1.0000 0.25050  0.73120  0.56850  Biso   1.000  C
  H343     1.0000 0.18590  0.72130  0.47360  Biso   1.000  H
  H344     1.0000 0.18540  0.75700  0.60830  Biso   1.000  H
  C396     1.0000 0.25020  0.74850  0.64300  Biso   1.000  C
  C397     1.0000 0.88900  0.50780  0.05760  Biso   1.000  C
  C398     1.0000 0.91400  0.99080  0.45160  Biso   1.000  C
  H345     1.0000 0.26690  0.72260  0.55640  Biso   1.000  H
  H346     1.0000 0.26620  0.75230  0.68830  Biso   1.000  H
  C399     1.0000 0.86880  0.51860  0.99230  Biso   1.000  C
  C400     1.0000 0.92080  0.47110  0.09550  Biso   1.000  C
  C401     1.0000 0.88590  0.02920  0.41820  Biso   1.000  C
  C402     1.0000 0.95040  0.99510  0.52250  Biso   1.000  C
  C403     1.0000 0.86000  0.48000  0.95450  Biso   1.000  C
  O81      1.0000 0.83010  0.54960  0.95870  Biso   1.000  O
  C404     1.0000 0.91490  0.43410  0.04600  Biso   1.000  C
  H347     1.0000 0.94220  0.46830  0.14240  Biso   1.000  H
  C405     1.0000 0.89540  0.07130  0.46850  Biso   1.000  C
  H348     1.0000 0.86320  0.03180  0.37120  Biso   1.000  H
  C406     1.0000 0.94710  0.02650  0.55750  Biso   1.000  C
  O82      1.0000 0.98480  0.96150  0.56180  Biso   1.000  O
  H349     1.0000 0.83380  0.48180  0.90810  Biso   1.000  H
  C407     1.0000 0.88840  0.43640  0.98080  Biso   1.000  C
  C408     1.0000 0.79170  0.55100  0.88000  Biso   1.000  C
  O83      1.0000 0.95180  0.39050  0.09700  Biso   1.000  O
  C409     1.0000 0.91090  0.06440  0.52350  Biso   1.000  C
  O84      1.0000 0.86260  0.09200  0.42690  Biso   1.000  O
  H350     1.0000 0.96860  0.02370  0.60430  Biso   1.000  H
  C410     1.0000 0.02000  0.96000  0.64730  Biso   1.000  C
  C411     1.0000 0.89020  0.39890  0.94470  Biso   1.000  C
  H351     1.0000 0.80000  0.53060  0.86060  Biso   1.000  H
  H352     1.0000 0.78530  0.58390  0.86260  Biso   1.000  H
  C412     1.0000 0.75080  0.53000  0.86910  Biso   1.000  C
  C413     1.0000 0.98670  0.38840  0.16970  Biso   1.000  C
  C414     1.0000 0.90800  0.10140  0.55880  Biso   1.000  C
  H353     1.0000 0.00210  0.93890  0.65140  Biso   1.000  H
  H354     1.0000 0.01570  0.99250  0.65640  Biso   1.000  H
  C415     1.0000 0.07000  0.94880  0.71040  Biso   1.000  C
  C416     1.0000 0.93200  0.38110  0.96870  Biso   1.000  C
  C417     1.0000 0.84830  0.38160  0.88350  Biso   1.000  C
  H355     1.0000 0.72770  0.52330  0.82090  Biso   1.000  H
  H356     1.0000 0.76330  0.49820  0.89030  Biso   1.000  H
  C418     1.0000 0.71810  0.54140  0.88110  Biso   1.000  C
  H357     1.0000 0.97510  0.40040  0.18940  Biso   1.000  H
  H358     1.0000 0.01650  0.40390  0.19050  Biso   1.000  H
  C419     1.0000 0.98860  0.33020  0.16850  Biso   1.000  C
  C420     1.0000 0.94910  0.12430  0.61820  Biso   1.000  C
  C421     1.0000 0.86550  0.11280  0.53900  Biso   1.000  C
  H359     1.0000 0.08170  0.96980  0.74780  Biso   1.000  H
  H360     1.0000 0.09150  0.94970  0.70390  Biso   1.000  H
  C422     1.0000 0.06100  0.90120  0.71770  Biso   1.000  C
  C423     1.0000 0.93390  0.34970  0.93000  Biso   1.000  C
  H361     1.0000 0.96010  0.38990  0.01200  Biso   1.000  H
  H362     1.0000 0.81930  0.39090  0.86820  Biso   1.000  H
  C424     1.0000 0.84940  0.34990  0.84430  Biso   1.000  C
  H363     1.0000 0.72510  0.51720  0.91280  Biso   1.000  H
  H364     1.0000 0.68570  0.53550  0.83850  Biso   1.000  H
  C425     1.0000 0.71820  0.57960  0.90080  Biso   1.000  C
  H365     1.0000 0.01510  0.32290  0.21610  Biso   1.000  H
  H366     1.0000 0.00100  0.32530  0.14810  Biso   1.000  H
  C426     1.0000 0.95430  0.28000  0.14190  Biso   1.000  C
  C427     1.0000 0.94810  0.15670  0.65540  Biso   1.000  C
  H367     1.0000 0.97830  0.11710  0.63270  Biso   1.000  H
  H368     1.0000 0.83740  0.09940  0.49950  Biso   1.000  H
  C428     1.0000 0.86390  0.14430  0.57730  Biso   1.000  C
  H369     1.0000 0.08810  0.88060  0.73730  Biso   1.000  H
  H370     1.0000 0.05610  0.90120  0.74790  Biso   1.000  H
  C429     1.0000 0.01830  0.88200  0.65080  Biso   1.000  C
  H371     1.0000 0.96310  0.33960  0.94640  Biso   1.000  H
  C430     1.0000 0.89210  0.33390  0.86740  Biso   1.000  C
  H372     1.0000 0.82110  0.33960  0.80230  Biso   1.000  H
  H373     1.0000 0.69560  0.57930  0.90490  Biso   1.000  H
  H374     1.0000 0.74940  0.58610  0.94420  Biso   1.000  H
  H375     1.0000 0.70970  0.60450  0.86940  Biso   1.000  H
  H376     1.0000 0.97320  0.25120  0.15400  Biso   1.000  H
  H377     1.0000 0.94340  0.27830  0.16470  Biso   1.000  H
  C431     1.0000 0.91390  0.28050  0.07000  Biso   1.000  C
  C432     1.0000 0.90351  0.16576  0.63360  Biso   1.000  C
  H378     1.0000 0.97560  0.17200  0.69340  Biso   1.000  H
  H379     1.0000 0.83490  0.15060  0.56370  Biso   1.000  H
  H380     1.0000 0.01220  0.84940  0.65580  Biso   1.000  H
  H381     1.0000 0.99150  0.90230  0.63180  Biso   1.000  H
  H382     1.0000 0.02350  0.88170  0.62130  Biso   1.000  H
  C433     1.0000 0.89310  0.30130  0.82540  Biso   1.000  C
  H383     1.0000 0.89540  0.25160  0.05680  Biso   1.000  H
  H384     1.0000 0.92460  0.28150  0.04720  Biso   1.000  H
  H385     1.0000 0.89480  0.30870  0.05790  Biso   1.000  H
  C434     1.0000 0.90136  0.19898  0.67580  Biso   1.000  C
  Zn15     1.0000 0.45144  0.24687  0.30460  Biso   1.000  Zn
  N15      1.0000 0.52329  0.24136  0.37860  Biso   1.000  N
  O85      1.0000 0.43585  0.18387  0.25236  Biso   1.000  O
  O86      1.0000 0.44483  0.31128  0.33480  Biso   1.000  O
  O87      1.0000 0.43255  0.21225  0.34902  Biso   1.000  O
  O88      1.0000 0.43995  0.28401  0.22990  Biso   1.000  O
  C435     1.0000 0.54879  0.21790  0.36870  Biso   1.000  C
  C436     1.0000 0.54870  0.26280  0.43830  Biso   1.000  C
  C437     1.0000 0.39600  0.17053  0.19940  Biso   1.000  C
  C438     1.0000 0.40650  0.32854  0.31160  Biso   1.000  C
  H386     1.0000 0.53240  0.20230  0.32750  Biso   1.000  H
  C439     1.0000 0.59741  0.21620  0.41650  Biso   1.000  C
  C440     1.0000 0.59740  0.26240  0.48810  Biso   1.000  C
  H387     1.0000 0.53240  0.27910  0.44700  Biso   1.000  H
  C441     1.0000 0.39410  0.12560  0.16580  Biso   1.000  C
  O89      1.0000 0.35711  0.19154  0.16970  Biso   1.000  O
  C442     1.0000 0.40790  0.37190  0.34540  Biso   1.000  C
  O90      1.0000 0.36552  0.31153  0.26080  Biso   1.000  O
  O91      1.0000 0.35434  0.21099  0.26850  Biso   1.000  O
  O92      1.0000 0.36102  0.29266  0.15266  Biso   1.000  O
  H388     1.0000 0.61350  0.19910  0.40810  Biso   1.000  H
  C443     1.0000 0.62236  0.24000  0.47740  Biso   1.000  C
  H389     1.0000 0.61310  0.27750  0.52930  Biso   1.000  H
  C444     1.0000 0.43450  0.10120  0.19300  Biso   1.000  C
  C445     1.0000 0.35150  0.10960  0.10390  Biso   1.000  C
  Zn16     1.0000 0.34709  0.25320  0.20077  Biso   1.000  Zn
  C446     1.0000 0.45130  0.39530  0.39830  Biso   1.000  C
  C447     1.0000 0.36680  0.38970  0.32530  Biso   1.000  C
  C448     1.0000 0.67540  0.24100  0.52920  Biso   1.000  C
  H390     1.0000 0.46330  0.11010  0.23540  Biso   1.000  H
  C449     1.0000 0.43330  0.06300  0.15820  Biso   1.000  C
  C450     1.0000 0.34990  0.07200  0.06800  Biso   1.000  C
  H391     1.0000 0.32330  0.12430  0.08590  Biso   1.000  H
  N16      1.0000 0.27453  0.25758  0.12820  Biso   1.000  N
  H392     1.0000 0.47900  0.38530  0.41010  Biso   1.000  H
  C451     1.0000 0.45260  0.43290  0.43250  Biso   1.000  C
  C452     1.0000 0.36890  0.42970  0.36030  Biso   1.000  C
  H393     1.0000 0.33760  0.37550  0.28900  Biso   1.000  H
  C453     1.0000 0.70070  0.23010  0.51720  Biso   1.000  C
  C454     1.0000 0.70110  0.24980  0.59480  Biso   1.000  C
  H394     1.0000 0.46130  0.04700  0.17770  Biso   1.000  H
  C455     1.0000 0.39100  0.04870  0.09510  Biso   1.000  C
  H395     1.0000 0.32110  0.06280  0.02590  Biso   1.000  H
  H396     1.0000 0.48180  0.44670  0.46930  Biso   1.000  H
  C456     1.0000 0.41060  0.45140  0.41300  Biso   1.000  C
  H397     1.0000 0.34090  0.44120  0.34680  Biso   1.000  H
  C457     1.0000 0.75050  0.23120  0.56850  Biso   1.000  C
  H398     1.0000 0.68590  0.22130  0.47360  Biso   1.000  H
  H399     1.0000 0.68540  0.25700  0.60830  Biso   1.000  H
  C458     1.0000 0.75020  0.24850  0.64300  Biso   1.000  C
  C459     1.0000 0.38900  0.00780  0.05760  Biso   1.000  C
  C460     1.0000 0.41400  0.49080  0.45160  Biso   1.000  C
  H400     1.0000 0.76690  0.22260  0.55640  Biso   1.000  H
  H401     1.0000 0.76620  0.25230  0.68830  Biso   1.000  H
  C461     1.0000 0.36880  0.01860  0.99230  Biso   1.000  C
  C462     1.0000 0.42080  0.97110  0.09550  Biso   1.000  C
  C463     1.0000 0.38590  0.52920  0.41820  Biso   1.000  C
  C464     1.0000 0.45040  0.49510  0.52250  Biso   1.000  C
  C465     1.0000 0.36000  0.98000  0.95450  Biso   1.000  C
  O93      1.0000 0.33010  0.04960  0.95870  Biso   1.000  O
  C466     1.0000 0.41490  0.93410  0.04600  Biso   1.000  C
  H402     1.0000 0.44220  0.96830  0.14240  Biso   1.000  H
  C467     1.0000 0.39540  0.57130  0.46850  Biso   1.000  C
  H403     1.0000 0.36320  0.53180  0.37120  Biso   1.000  H
  C468     1.0000 0.44710  0.52650  0.55750  Biso   1.000  C
  O94      1.0000 0.48480  0.46150  0.56180  Biso   1.000  O
  H404     1.0000 0.33380  0.98180  0.90810  Biso   1.000  H
  C469     1.0000 0.38840  0.93640  0.98080  Biso   1.000  C
  C470     1.0000 0.29170  0.05100  0.88000  Biso   1.000  C
  O95      1.0000 0.45180  0.89050  0.09700  Biso   1.000  O
  C471     1.0000 0.41090  0.56440  0.52350  Biso   1.000  C
  O96      1.0000 0.36260  0.59200  0.42690  Biso   1.000  O
  H405     1.0000 0.46860  0.52370  0.60430  Biso   1.000  H
  C472     1.0000 0.52000  0.46000  0.64730  Biso   1.000  C
  C473     1.0000 0.39020  0.89890  0.94470  Biso   1.000  C
  H406     1.0000 0.30000  0.03060  0.86060  Biso   1.000  H
  H407     1.0000 0.28530  0.08390  0.86260  Biso   1.000  H
  C474     1.0000 0.25080  0.03000  0.86910  Biso   1.000  C
  C475     1.0000 0.48670  0.88840  0.16970  Biso   1.000  C
  C476     1.0000 0.40800  0.60140  0.55880  Biso   1.000  C
  H408     1.0000 0.50210  0.43890  0.65140  Biso   1.000  H
  H409     1.0000 0.51570  0.49250  0.65640  Biso   1.000  H
  C477     1.0000 0.57000  0.44880  0.71040  Biso   1.000  C
  C478     1.0000 0.43200  0.88110  0.96870  Biso   1.000  C
  C479     1.0000 0.34830  0.88160  0.88350  Biso   1.000  C
  H410     1.0000 0.22770  0.02330  0.82090  Biso   1.000  H
  H411     1.0000 0.26330  0.99820  0.89030  Biso   1.000  H
  C480     1.0000 0.21810  0.04140  0.88110  Biso   1.000  C
  H412     1.0000 0.47510  0.90040  0.18940  Biso   1.000  H
  H413     1.0000 0.51650  0.90390  0.19050  Biso   1.000  H
  C481     1.0000 0.48860  0.83020  0.16850  Biso   1.000  C
  C482     1.0000 0.44910  0.62430  0.61820  Biso   1.000  C
  C483     1.0000 0.36550  0.61280  0.53900  Biso   1.000  C
  H414     1.0000 0.58170  0.46980  0.74780  Biso   1.000  H
  H415     1.0000 0.59150  0.44970  0.70390  Biso   1.000  H
  C484     1.0000 0.56100  0.40120  0.71770  Biso   1.000  C
  C485     1.0000 0.43390  0.84970  0.93000  Biso   1.000  C
  H416     1.0000 0.46010  0.88990  0.01200  Biso   1.000  H
  H417     1.0000 0.31930  0.89090  0.86820  Biso   1.000  H
  C486     1.0000 0.34940  0.84990  0.84430  Biso   1.000  C
  H418     1.0000 0.22510  0.01720  0.91280  Biso   1.000  H
  H419     1.0000 0.18570  0.03550  0.83850  Biso   1.000  H
  C487     1.0000 0.21820  0.07960  0.90080  Biso   1.000  C
  H420     1.0000 0.51510  0.82290  0.21610  Biso   1.000  H
  H421     1.0000 0.50100  0.82530  0.14810  Biso   1.000  H
  C488     1.0000 0.45430  0.78000  0.14190  Biso   1.000  C
  C489     1.0000 0.44810  0.65670  0.65540  Biso   1.000  C
  H422     1.0000 0.47830  0.61710  0.63270  Biso   1.000  H
  H423     1.0000 0.33740  0.59940  0.49950  Biso   1.000  H
  C490     1.0000 0.36390  0.64430  0.57730  Biso   1.000  C
  H424     1.0000 0.58810  0.38060  0.73730  Biso   1.000  H
  H425     1.0000 0.55610  0.40120  0.74790  Biso   1.000  H
  C491     1.0000 0.51830  0.38200  0.65080  Biso   1.000  C
  H426     1.0000 0.46310  0.83960  0.94640  Biso   1.000  H
  C492     1.0000 0.39210  0.83390  0.86740  Biso   1.000  C
  H427     1.0000 0.32110  0.83960  0.80230  Biso   1.000  H
  H428     1.0000 0.19560  0.07930  0.90490  Biso   1.000  H
  H429     1.0000 0.24940  0.08610  0.94420  Biso   1.000  H
  H430     1.0000 0.20970  0.10450  0.86940  Biso   1.000  H
  H431     1.0000 0.47320  0.75120  0.15400  Biso   1.000  H
  H432     1.0000 0.44340  0.77830  0.16470  Biso   1.000  H
  C493     1.0000 0.41390  0.78050  0.07000  Biso   1.000  C
  C494     1.0000 0.40351  0.66576  0.63360  Biso   1.000  C
  H433     1.0000 0.47560  0.67200  0.69340  Biso   1.000  H
  H434     1.0000 0.33490  0.65060  0.56370  Biso   1.000  H
  H435     1.0000 0.51220  0.34940  0.65580  Biso   1.000  H
  H436     1.0000 0.49150  0.40230  0.63180  Biso   1.000  H
  H437     1.0000 0.52350  0.38170  0.62130  Biso   1.000  H
  C495     1.0000 0.39310  0.80130  0.82540  Biso   1.000  C
  H438     1.0000 0.39540  0.75160  0.05680  Biso   1.000  H
  H439     1.0000 0.42460  0.78150  0.04720  Biso   1.000  H
  H440     1.0000 0.39480  0.80870  0.05790  Biso   1.000  H
  C496     1.0000 0.40136  0.69898  0.67580  Biso   1.000  C
