
#======================================================================
# CRYSTAL DATA
#----------------------------------------------------------------------
data_VESTA_phase_1

_chemical_name_common                  'ic5b00096_si_002_freeONLY'
_cell_length_a                         26.088699
_cell_length_b                         26.088699
_cell_length_c                         26.088699
_cell_angle_alpha                      90.000000
_cell_angle_beta                       90.000000
_cell_angle_gamma                      90.000000
_cell_volume                           17756.496632
_space_group_name_H-M_alt              'P 1'
_space_group_IT_number                 1

loop_
_space_group_symop_operation_xyz
   'x, y, z'

loop_
   _atom_site_label
   _atom_site_occupancy
   _atom_site_fract_x
   _atom_site_fract_y
   _atom_site_fract_z
   _atom_site_adp_type
   _atom_site_U_iso_or_equiv
   _atom_site_type_symbol
   Zr1        1.0     0.484560     0.983550     0.091170    Uiso  0.012670 Zr
   Zr2        1.0     0.516450     0.591170     0.484560    Uiso  0.012670 Zr
   Zr3        1.0     0.984560     0.516450     0.908830    Uiso  0.012670 Zr
   Zr4        1.0     0.484560     0.516450     0.591170    Uiso  0.012670 Zr
   Zr5        1.0     0.515440     0.483550     0.408830    Uiso  0.012670 Zr
   Zr6        1.0     0.515440     0.016450     0.908830    Uiso  0.012670 Zr
   Zr7        1.0     0.015440     0.016450     0.591170    Uiso  0.012670 Zr
   Zr8        1.0     0.408830     0.515440     0.483550    Uiso  0.012670 Zr
   Zr9        1.0     0.516450     0.908830     0.984560    Uiso  0.012670 Zr
   Zr10       1.0     0.091170     0.484560     0.983550    Uiso  0.012670 Zr
   Zr11       1.0     0.984560     0.983550     0.408830    Uiso  0.012670 Zr
   Zr12       1.0     0.983550     0.091170     0.484560    Uiso  0.012670 Zr
   Zr13       1.0     0.015440     0.483550     0.091170    Uiso  0.012670 Zr
   Zr14       1.0     0.016450     0.908830     0.515440    Uiso  0.012670 Zr
   Zr15       1.0     0.091170     0.015440     0.483550    Uiso  0.012670 Zr
   Zr16       1.0     0.983550     0.408830     0.984560    Uiso  0.012670 Zr
   Zr17       1.0     0.016450     0.591170     0.015440    Uiso  0.012670 Zr
   Zr18       1.0     0.908830     0.984560     0.516450    Uiso  0.012670 Zr
   Zr19       1.0     0.908830     0.515440     0.016450    Uiso  0.012670 Zr
   Zr20       1.0     0.483550     0.408830     0.515440    Uiso  0.012670 Zr
   Zr21       1.0     0.591170     0.484560     0.516450    Uiso  0.012670 Zr
   Zr22       1.0     0.483550     0.091170     0.015440    Uiso  0.012670 Zr
   Zr23       1.0     0.591170     0.015440     0.016450    Uiso  0.012670 Zr
   Zr24       1.0     0.408830     0.984560     0.983550    Uiso  0.012670 Zr
   Cu1        1.0     0.211570     0.707510     0.480540    Uiso  0.012670 Cu
   Cu2        1.0     0.207510     0.480540     0.288430    Uiso  0.012670 Cu
   Cu3        1.0     0.019460     0.788430     0.207510    Uiso  0.012670 Cu
   Cu4        1.0     0.288430     0.207510     0.480540    Uiso  0.012670 Cu
   Cu5        1.0     0.480540     0.288430     0.207510    Uiso  0.012670 Cu
   Cu6        1.0     0.792490     0.980540     0.211570    Uiso  0.012670 Cu
   Cu7        1.0     0.707510     0.019460     0.711570    Uiso  0.012670 Cu
   Cu8        1.0     0.788430     0.207510     0.019460    Uiso  0.012670 Cu
   Cu9        1.0     0.211570     0.792490     0.980540    Uiso  0.012670 Cu
   Cu10       1.0     0.711570     0.707510     0.019460    Uiso  0.012670 Cu
   Cu11       1.0     0.788430     0.292490     0.519460    Uiso  0.012670 Cu
   Cu12       1.0     0.980540     0.211570     0.792490    Uiso  0.012670 Cu
   Cu13       1.0     0.480540     0.211570     0.707510    Uiso  0.012670 Cu
   Cu14       1.0     0.292490     0.980540     0.288430    Uiso  0.012670 Cu
   Cu15       1.0     0.519460     0.788430     0.292490    Uiso  0.012670 Cu
   Cu16       1.0     0.792490     0.519460     0.711570    Uiso  0.012670 Cu
   Cu17       1.0     0.292490     0.519460     0.788430    Uiso  0.012670 Cu
   Cu18       1.0     0.288430     0.292490     0.980540    Uiso  0.012670 Cu
   Cu19       1.0     0.019460     0.711570     0.707510    Uiso  0.012670 Cu
   Cu20       1.0     0.980540     0.288430     0.292490    Uiso  0.012670 Cu
   Cu21       1.0     0.711570     0.792490     0.519460    Uiso  0.012670 Cu
   Cu22       1.0     0.207510     0.019460     0.788430    Uiso  0.012670 Cu
   Cu23       1.0     0.707510     0.480540     0.211570    Uiso  0.012670 Cu
   Cu24       1.0     0.519460     0.711570     0.792490    Uiso  0.012670 Cu
   H1         1.0     0.800990     0.996150     0.649500    Uiso  0.012670 H
   H2         1.0     0.649500     0.800990     0.996150    Uiso  0.012670 H
   H3         1.0     0.300990     0.503850     0.350500    Uiso  0.012670 H
   H4         1.0     0.060290     0.638880     0.303760    Uiso  0.012670 H
   H5         1.0     0.361120     0.696240     0.939710    Uiso  0.012670 H
   H6         1.0     0.638880     0.196240     0.560290    Uiso  0.012670 H
   H7         1.0     0.916740     0.765740     0.563230    Uiso  0.012670 H
   H8         1.0     0.300990     0.996150     0.850500    Uiso  0.012670 H
   H9         1.0     0.583260     0.234260     0.063230    Uiso  0.012670 H
   H10        1.0     0.988770     0.195580     0.357820    Uiso  0.012670 H
   H11        1.0     0.078210     0.955080     0.267890    Uiso  0.012670 H
   H12        1.0     0.083260     0.234260     0.436770    Uiso  0.012670 H
   H13        1.0     0.802980     0.631040     0.555750    Uiso  0.012670 H
   H14        1.0     0.642180     0.488770     0.304420    Uiso  0.012670 H
   H15        1.0     0.142180     0.488770     0.195580    Uiso  0.012670 H
   H16        1.0     0.996150     0.649500     0.800990    Uiso  0.012670 H
   H17        1.0     0.699010     0.003850     0.149500    Uiso  0.012670 H
   H18        1.0     0.063230     0.583260     0.234260    Uiso  0.012670 H
   H19        1.0     0.804420     0.642180     0.011230    Uiso  0.012670 H
   H20        1.0     0.232110     0.578210     0.955080    Uiso  0.012670 H
   H21        1.0     0.921790     0.455080     0.232110    Uiso  0.012670 H
   H22        1.0     0.939710     0.361120     0.696240    Uiso  0.012670 H
   H23        1.0     0.638880     0.303760     0.060290    Uiso  0.012670 H
   H24        1.0     0.767890     0.078210     0.544920    Uiso  0.012670 H
   H25        1.0     0.357820     0.511230     0.695580    Uiso  0.012670 H
   H26        1.0     0.138880     0.196240     0.939710    Uiso  0.012670 H
   H27        1.0     0.996150     0.850500     0.300990    Uiso  0.012670 H
   H28        1.0     0.195580     0.357820     0.988770    Uiso  0.012670 H
   H29        1.0     0.857820     0.511230     0.804420    Uiso  0.012670 H
   H30        1.0     0.563230     0.583260     0.265740    Uiso  0.012670 H
   H31        1.0     0.196240     0.939710     0.138880    Uiso  0.012670 H
   H32        1.0     0.868960     0.055750     0.802980    Uiso  0.012670 H
   H33        1.0     0.416740     0.765740     0.936770    Uiso  0.012670 H
   H34        1.0     0.955080     0.232110     0.578210    Uiso  0.012670 H
   H35        1.0     0.696240     0.560290     0.861120    Uiso  0.012670 H
   H36        1.0     0.939710     0.138880     0.196240    Uiso  0.012670 H
   H37        1.0     0.560290     0.638880     0.196240    Uiso  0.012670 H
   H38        1.0     0.131040     0.555750     0.697020    Uiso  0.012670 H
   H39        1.0     0.642180     0.011230     0.804420    Uiso  0.012670 H
   H40        1.0     0.732110     0.578210     0.544920    Uiso  0.012670 H
   H41        1.0     0.055750     0.697020     0.368960    Uiso  0.012670 H
   H42        1.0     0.350500     0.300990     0.503850    Uiso  0.012670 H
   H43        1.0     0.149500     0.699010     0.003850    Uiso  0.012670 H
   H44        1.0     0.697020     0.368960     0.055750    Uiso  0.012670 H
   H45        1.0     0.455080     0.232110     0.921790    Uiso  0.012670 H
   H46        1.0     0.488770     0.195580     0.142180    Uiso  0.012670 H
   H47        1.0     0.511230     0.695580     0.357820    Uiso  0.012670 H
   H48        1.0     0.303760     0.439710     0.138880    Uiso  0.012670 H
   H49        1.0     0.631040     0.555750     0.802980    Uiso  0.012670 H
   H50        1.0     0.232110     0.921790     0.455080    Uiso  0.012670 H
   H51        1.0     0.696240     0.939710     0.361120    Uiso  0.012670 H
   H52        1.0     0.955080     0.267890     0.078210    Uiso  0.012670 H
   H53        1.0     0.060290     0.861120     0.803760    Uiso  0.012670 H
   H54        1.0     0.544920     0.767890     0.078210    Uiso  0.012670 H
   H55        1.0     0.857820     0.988770     0.304420    Uiso  0.012670 H
   H56        1.0     0.496150     0.850500     0.199010    Uiso  0.012670 H
   H57        1.0     0.436770     0.083260     0.234260    Uiso  0.012670 H
   H58        1.0     0.861120     0.803760     0.060290    Uiso  0.012670 H
   H59        1.0     0.063230     0.916740     0.734260    Uiso  0.012670 H
   H60        1.0     0.196240     0.560290     0.638880    Uiso  0.012670 H
   H61        1.0     0.850500     0.199010     0.496150    Uiso  0.012670 H
   H62        1.0     0.803760     0.060290     0.861120    Uiso  0.012670 H
   H63        1.0     0.916740     0.734260     0.063230    Uiso  0.012670 H
   H64        1.0     0.695580     0.357820     0.511230    Uiso  0.012670 H
   H65        1.0     0.011230     0.804420     0.642180    Uiso  0.012670 H
   H66        1.0     0.560290     0.861120     0.696240    Uiso  0.012670 H
   H67        1.0     0.734260     0.436770     0.416740    Uiso  0.012670 H
   H68        1.0     0.511230     0.804420     0.857820    Uiso  0.012670 H
   H69        1.0     0.078210     0.544920     0.767890    Uiso  0.012670 H
   H70        1.0     0.416740     0.734260     0.436770    Uiso  0.012670 H
   H71        1.0     0.631040     0.944250     0.302980    Uiso  0.012670 H
   H72        1.0     0.368960     0.444250     0.197020    Uiso  0.012670 H
   H73        1.0     0.496150     0.649500     0.699010    Uiso  0.012670 H
   H74        1.0     0.195580     0.142180     0.488770    Uiso  0.012670 H
   H75        1.0     0.044920     0.767890     0.421790    Uiso  0.012670 H
   H76        1.0     0.234260     0.436770     0.083260    Uiso  0.012670 H
   H77        1.0     0.439710     0.361120     0.803760    Uiso  0.012670 H
   H78        1.0     0.003850     0.149500     0.699010    Uiso  0.012670 H
   H79        1.0     0.861120     0.696240     0.560290    Uiso  0.012670 H
   H80        1.0     0.649500     0.699010     0.496150    Uiso  0.012670 H
   H81        1.0     0.303760     0.060290     0.638880    Uiso  0.012670 H
   H82        1.0     0.555750     0.697020     0.131040    Uiso  0.012670 H
   H83        1.0     0.055750     0.802980     0.868960    Uiso  0.012670 H
   H84        1.0     0.444250     0.197020     0.368960    Uiso  0.012670 H
   H85        1.0     0.936770     0.416740     0.765740    Uiso  0.012670 H
   H86        1.0     0.234260     0.063230     0.583260    Uiso  0.012670 H
   H87        1.0     0.734260     0.063230     0.916740    Uiso  0.012670 H
   H88        1.0     0.149500     0.800990     0.503850    Uiso  0.012670 H
   H89        1.0     0.921790     0.044920     0.732110    Uiso  0.012670 H
   H90        1.0     0.131040     0.944250     0.197020    Uiso  0.012670 H
   H91        1.0     0.699010     0.496150     0.649500    Uiso  0.012670 H
   H92        1.0     0.765740     0.936770     0.416740    Uiso  0.012670 H
   H93        1.0     0.265740     0.563230     0.583260    Uiso  0.012670 H
   H94        1.0     0.767890     0.421790     0.044920    Uiso  0.012670 H
   H95        1.0     0.503850     0.149500     0.800990    Uiso  0.012670 H
   H96        1.0     0.357820     0.988770     0.195580    Uiso  0.012670 H
   H97        1.0     0.583260     0.265740     0.563230    Uiso  0.012670 H
   H98        1.0     0.265740     0.936770     0.083260    Uiso  0.012670 H
   H99        1.0     0.421790     0.455080     0.267890    Uiso  0.012670 H
   H100       1.0     0.267890     0.078210     0.955080    Uiso  0.012670 H
   H101       1.0     0.544920     0.732110     0.578210    Uiso  0.012670 H
   H102       1.0     0.578210     0.544920     0.732110    Uiso  0.012670 H
   H103       1.0     0.804420     0.857820     0.511230    Uiso  0.012670 H
   H104       1.0     0.697020     0.131040     0.555750    Uiso  0.012670 H
   H105       1.0     0.350500     0.199010     0.003850    Uiso  0.012670 H
   H106       1.0     0.503850     0.350500     0.300990    Uiso  0.012670 H
   H107       1.0     0.197020     0.368960     0.444250    Uiso  0.012670 H
   H108       1.0     0.197020     0.131040     0.944250    Uiso  0.012670 H
   H109       1.0     0.304420     0.642180     0.488770    Uiso  0.012670 H
   H110       1.0     0.936770     0.083260     0.265740    Uiso  0.012670 H
   H111       1.0     0.436770     0.416740     0.734260    Uiso  0.012670 H
   H112       1.0     0.488770     0.304420     0.642180    Uiso  0.012670 H
   H113       1.0     0.944250     0.302980     0.631040    Uiso  0.012670 H
   H114       1.0     0.444250     0.302980     0.868960    Uiso  0.012670 H
   H115       1.0     0.578210     0.955080     0.232110    Uiso  0.012670 H
   H116       1.0     0.555750     0.802980     0.631040    Uiso  0.012670 H
   H117       1.0     0.944250     0.197020     0.131040    Uiso  0.012670 H
   H118       1.0     0.368960     0.055750     0.697020    Uiso  0.012670 H
   H119       1.0     0.199010     0.003850     0.350500    Uiso  0.012670 H
   H120       1.0     0.302980     0.631040     0.944250    Uiso  0.012670 H
   H121       1.0     0.011230     0.695580     0.142180    Uiso  0.012670 H
   H122       1.0     0.802980     0.868960     0.055750    Uiso  0.012670 H
   H123       1.0     0.003850     0.350500     0.199010    Uiso  0.012670 H
   H124       1.0     0.868960     0.444250     0.302980    Uiso  0.012670 H
   H125       1.0     0.803760     0.439710     0.361120    Uiso  0.012670 H
   H126       1.0     0.304420     0.857820     0.988770    Uiso  0.012670 H
   H127       1.0     0.142180     0.011230     0.695580    Uiso  0.012670 H
   H128       1.0     0.563230     0.916740     0.765740    Uiso  0.012670 H
   H129       1.0     0.083260     0.265740     0.936770    Uiso  0.012670 H
   H130       1.0     0.732110     0.921790     0.044920    Uiso  0.012670 H
   H131       1.0     0.421790     0.044920     0.767890    Uiso  0.012670 H
   H132       1.0     0.361120     0.803760     0.439710    Uiso  0.012670 H
   H133       1.0     0.765740     0.563230     0.916740    Uiso  0.012670 H
   H134       1.0     0.199010     0.496150     0.850500    Uiso  0.012670 H
   H135       1.0     0.439710     0.138880     0.303760    Uiso  0.012670 H
   H136       1.0     0.455080     0.267890     0.421790    Uiso  0.012670 H
   H137       1.0     0.800990     0.503850     0.149500    Uiso  0.012670 H
   H138       1.0     0.695580     0.142180     0.011230    Uiso  0.012670 H
   H139       1.0     0.302980     0.868960     0.444250    Uiso  0.012670 H
   H140       1.0     0.988770     0.304420     0.857820    Uiso  0.012670 H
   H141       1.0     0.138880     0.303760     0.439710    Uiso  0.012670 H
   H142       1.0     0.850500     0.300990     0.996150    Uiso  0.012670 H
   H143       1.0     0.267890     0.421790     0.455080    Uiso  0.012670 H
   H144       1.0     0.044920     0.732110     0.921790    Uiso  0.012670 H
   C1         1.0     0.543560     0.771600     0.644940    Uiso  0.012670 C
   C2         1.0     0.180880     0.814890     0.491670    Uiso  0.012670 C
   C3         1.0     0.180880     0.685110     0.991670    Uiso  0.012670 C
   C4         1.0     0.462500     0.365650     0.681890    Uiso  0.012670 C
   C5         1.0     0.685110     0.991670     0.180880    Uiso  0.012670 C
   C6         1.0     0.196260     0.967650     0.231860    Uiso  0.012670 C
   C7         1.0     0.268140     0.803740     0.467650    Uiso  0.012670 C
   C8         1.0     0.480450     0.184340     0.866210    Uiso  0.012670 C
   C9         1.0     0.349530     0.770720     0.449740    Uiso  0.012670 C
   C10        1.0     0.770290     0.113700     0.537160    Uiso  0.012670 C
   C11        1.0     0.882410     0.729640     0.052000    Uiso  0.012670 C
   C12        1.0     0.303740     0.032350     0.731860    Uiso  0.012670 C
   C13        1.0     0.543560     0.728400     0.144940    Uiso  0.012670 C
   C14        1.0     0.683980     0.324790     0.521260    Uiso  0.012670 C
   C15        1.0     0.386300     0.462840     0.270290    Uiso  0.012670 C
   C16        1.0     0.465980     0.299900     0.764050    Uiso  0.012670 C
   C17        1.0     0.460680     0.099710     0.138600    Uiso  0.012670 C
   C18        1.0     0.235950     0.965980     0.200100    Uiso  0.012670 C
   C19        1.0     0.521260     0.816020     0.824790    Uiso  0.012670 C
   C20        1.0     0.318110     0.537500     0.634350    Uiso  0.012670 C
   C21        1.0     0.537160     0.729710     0.613700    Uiso  0.012670 C
   C22        1.0     0.539320     0.900290     0.861400    Uiso  0.012670 C
   C23        1.0     0.315660     0.366210     0.480450    Uiso  0.012670 C
   C24        1.0     0.050260     0.849530     0.770720    Uiso  0.012670 C
   C25        1.0     0.978740     0.316020     0.824790    Uiso  0.012670 C
   C26        1.0     0.021260     0.683980     0.175210    Uiso  0.012670 C
   C27        1.0     0.462500     0.134350     0.181890    Uiso  0.012670 C
   C28        1.0     0.449740     0.150470     0.270720    Uiso  0.012670 C
   C29        1.0     0.815660     0.133790     0.519550    Uiso  0.012670 C
   C30        1.0     0.231860     0.303740     0.467650    Uiso  0.012670 C
   C31        1.0     0.229710     0.886300     0.462840    Uiso  0.012670 C
   C32        1.0     0.052000     0.882410     0.729640    Uiso  0.012670 C
   C33        1.0     0.365650     0.818110     0.962500    Uiso  0.012670 C
   C34        1.0     0.175210     0.021260     0.683980    Uiso  0.012670 C
   C35        1.0     0.532350     0.731860     0.196260    Uiso  0.012670 C
   C36        1.0     0.550260     0.849530     0.729280    Uiso  0.012670 C
   C37        1.0     0.684340     0.866210     0.019550    Uiso  0.012670 C
   C38        1.0     0.361400     0.960680     0.099710    Uiso  0.012670 C
   C39        1.0     0.537500     0.865650     0.818110    Uiso  0.012670 C
   C40        1.0     0.491670     0.319120     0.314890    Uiso  0.012670 C
   C41        1.0     0.899110     0.012810     0.640200    Uiso  0.012670 C
   C42        1.0     0.144940     0.956440     0.228400    Uiso  0.012670 C
   C43        1.0     0.235950     0.534020     0.700100    Uiso  0.012670 C
   C44        1.0     0.849530     0.729280     0.550260    Uiso  0.012670 C
   C45        1.0     0.366210     0.019550     0.815660    Uiso  0.012670 C
   C46        1.0     0.861400     0.539320     0.900290    Uiso  0.012670 C
   C47        1.0     0.962500     0.365650     0.818110    Uiso  0.012670 C
   C48        1.0     0.349530     0.729280     0.949740    Uiso  0.012670 C
   C49        1.0     0.487190     0.359800     0.399110    Uiso  0.012670 C
   C50        1.0     0.633790     0.519550     0.684340    Uiso  0.012670 C
   C51        1.0     0.183980     0.175210     0.478740    Uiso  0.012670 C
   C52        1.0     0.039320     0.900290     0.638600    Uiso  0.012670 C
   C53        1.0     0.512810     0.859800     0.100890    Uiso  0.012670 C
   C54        1.0     0.270360     0.552000     0.617590    Uiso  0.012670 C
   C55        1.0     0.960680     0.400290     0.861400    Uiso  0.012670 C
   C56        1.0     0.229640     0.052000     0.617590    Uiso  0.012670 C
   C57        1.0     0.487190     0.140200     0.899110    Uiso  0.012670 C
   C58        1.0     0.861400     0.960680     0.400290    Uiso  0.012670 C
   C59        1.0     0.675210     0.478740     0.316020    Uiso  0.012670 C
   C60        1.0     0.270720     0.050260     0.650470    Uiso  0.012670 C
   C61        1.0     0.634350     0.318110     0.537500    Uiso  0.012670 C
   C62        1.0     0.037160     0.729710     0.886300    Uiso  0.012670 C
   C63        1.0     0.034020     0.799900     0.764050    Uiso  0.012670 C
   C64        1.0     0.303740     0.467650     0.231860    Uiso  0.012670 C
   C65        1.0     0.319120     0.185110     0.991670    Uiso  0.012670 C
   C66        1.0     0.462840     0.229710     0.886300    Uiso  0.012670 C
   C67        1.0     0.617590     0.270360     0.552000    Uiso  0.012670 C
   C68        1.0     0.264050     0.034020     0.700100    Uiso  0.012670 C
   C69        1.0     0.399110     0.487190     0.359800    Uiso  0.012670 C
   C70        1.0     0.034020     0.700100     0.264050    Uiso  0.012670 C
   C71        1.0     0.019550     0.815660     0.366210    Uiso  0.012670 C
   C72        1.0     0.900290     0.861400     0.539320    Uiso  0.012670 C
   C73        1.0     0.644940     0.956440     0.271600    Uiso  0.012670 C
   C74        1.0     0.650470     0.229280     0.550260    Uiso  0.012670 C
   C75        1.0     0.824790     0.978740     0.316020    Uiso  0.012670 C
   C76        1.0     0.770290     0.386300     0.037160    Uiso  0.012670 C
   C77        1.0     0.956440     0.228400     0.144940    Uiso  0.012670 C
   C78        1.0     0.324790     0.521260     0.683980    Uiso  0.012670 C
   C79        1.0     0.448000     0.382410     0.729640    Uiso  0.012670 C
   C80        1.0     0.729710     0.886300     0.037160    Uiso  0.012670 C
   C81        1.0     0.638600     0.460680     0.400290    Uiso  0.012670 C
   C82        1.0     0.991670     0.180880     0.685110    Uiso  0.012670 C
   C83        1.0     0.764050     0.034020     0.799900    Uiso  0.012670 C
   C84        1.0     0.181890     0.462500     0.134350    Uiso  0.012670 C
   C85        1.0     0.508330     0.819120     0.185110    Uiso  0.012670 C
   C86        1.0     0.980450     0.315660     0.133790    Uiso  0.012670 C
   C87        1.0     0.140200     0.600890     0.987190    Uiso  0.012670 C
   C88        1.0     0.680880     0.685110     0.508330    Uiso  0.012670 C
   C89        1.0     0.271600     0.855060     0.456440    Uiso  0.012670 C
   C90        1.0     0.012810     0.859800     0.399110    Uiso  0.012670 C
   C91        1.0     0.465980     0.200100     0.264050    Uiso  0.012670 C
   C92        1.0     0.768140     0.803740     0.032350    Uiso  0.012670 C
   C93        1.0     0.138600     0.460680     0.099710    Uiso  0.012670 C
   C94        1.0     0.268140     0.696260     0.967650    Uiso  0.012670 C
   C95        1.0     0.962500     0.134350     0.318110    Uiso  0.012670 C
   C96        1.0     0.613700     0.962840     0.229710    Uiso  0.012670 C
   C97        1.0     0.299900     0.735950     0.965980    Uiso  0.012670 C
   C98        1.0     0.882410     0.770360     0.552000    Uiso  0.012670 C
   C99        1.0     0.043560     0.771600     0.855060    Uiso  0.012670 C
   C100       1.0     0.478740     0.183980     0.175210    Uiso  0.012670 C
   C101       1.0     0.537160     0.770290     0.113700    Uiso  0.012670 C
   C102       1.0     0.133790     0.980450     0.315660    Uiso  0.012670 C
   C103       1.0     0.849530     0.770720     0.050260    Uiso  0.012670 C
   C104       1.0     0.770360     0.948000     0.382410    Uiso  0.012670 C
   C105       1.0     0.978740     0.183980     0.324790    Uiso  0.012670 C
   C106       1.0     0.818110     0.537500     0.865650    Uiso  0.012670 C
   C107       1.0     0.138600     0.039320     0.599710    Uiso  0.012670 C
   C108       1.0     0.270290     0.113700     0.962840    Uiso  0.012670 C
   C109       1.0     0.886300     0.462840     0.229710    Uiso  0.012670 C
   C110       1.0     0.386300     0.037160     0.770290    Uiso  0.012670 C
   C111       1.0     0.099710     0.361400     0.960680    Uiso  0.012670 C
   C112       1.0     0.512810     0.640200     0.600890    Uiso  0.012670 C
   C113       1.0     0.865650     0.818110     0.537500    Uiso  0.012670 C
   C114       1.0     0.962840     0.229710     0.613700    Uiso  0.012670 C
   C115       1.0     0.316020     0.675210     0.478740    Uiso  0.012670 C
   C116       1.0     0.764050     0.465980     0.299900    Uiso  0.012670 C
   C117       1.0     0.228400     0.144940     0.956440    Uiso  0.012670 C
   C118       1.0     0.962840     0.270290     0.113700    Uiso  0.012670 C
   C119       1.0     0.200100     0.235950     0.965980    Uiso  0.012670 C
   C120       1.0     0.818110     0.962500     0.365650    Uiso  0.012670 C
   C121       1.0     0.684340     0.633790     0.519550    Uiso  0.012670 C
   C122       1.0     0.960680     0.099710     0.361400    Uiso  0.012670 C
   C123       1.0     0.270360     0.948000     0.117590    Uiso  0.012670 C
   C124       1.0     0.539320     0.599710     0.361400    Uiso  0.012670 C
   C125       1.0     0.039320     0.599710     0.138600    Uiso  0.012670 C
   C126       1.0     0.729280     0.949740     0.349530    Uiso  0.012670 C
   C127       1.0     0.100890     0.512810     0.859800    Uiso  0.012670 C
   C128       1.0     0.359800     0.100890     0.987190    Uiso  0.012670 C
   C129       1.0     0.019550     0.684340     0.866210    Uiso  0.012670 C
   C130       1.0     0.185110     0.991670     0.319120    Uiso  0.012670 C
   C131       1.0     0.550260     0.650470     0.229280    Uiso  0.012670 C
   C132       1.0     0.967650     0.268140     0.696260    Uiso  0.012670 C
   C133       1.0     0.117590     0.270360     0.948000    Uiso  0.012670 C
   C134       1.0     0.949740     0.349530     0.729280    Uiso  0.012670 C
   C135       1.0     0.113700     0.537160     0.770290    Uiso  0.012670 C
   C136       1.0     0.965980     0.200100     0.235950    Uiso  0.012670 C
   C137       1.0     0.599710     0.138600     0.039320    Uiso  0.012670 C
   C138       1.0     0.700100     0.264050     0.034020    Uiso  0.012670 C
   C139       1.0     0.032350     0.731860     0.303740    Uiso  0.012670 C
   C140       1.0     0.012810     0.640200     0.899110    Uiso  0.012670 C
   C141       1.0     0.140200     0.899110     0.487190    Uiso  0.012670 C
   C142       1.0     0.361400     0.539320     0.599710    Uiso  0.012670 C
   C143       1.0     0.613700     0.537160     0.729710    Uiso  0.012670 C
   C144       1.0     0.816020     0.675210     0.021260    Uiso  0.012670 C
   C145       1.0     0.680880     0.814890     0.008330    Uiso  0.012670 C
   C146       1.0     0.865650     0.681890     0.037500    Uiso  0.012670 C
   C147       1.0     0.956440     0.271600     0.644940    Uiso  0.012670 C
   C148       1.0     0.600890     0.987190     0.140200    Uiso  0.012670 C
   C149       1.0     0.819120     0.185110     0.508330    Uiso  0.012670 C
   C150       1.0     0.462840     0.270290     0.386300    Uiso  0.012670 C
   C151       1.0     0.519550     0.684340     0.633790    Uiso  0.012670 C
   C152       1.0     0.448000     0.117590     0.229640    Uiso  0.012670 C
   C153       1.0     0.681890     0.037500     0.865650    Uiso  0.012670 C
   C154       1.0     0.037500     0.634350     0.181890    Uiso  0.012670 C
   C155       1.0     0.735950     0.534020     0.799900    Uiso  0.012670 C
   C156       1.0     0.264050     0.465980     0.200100    Uiso  0.012670 C
   C157       1.0     0.052000     0.617590     0.229640    Uiso  0.012670 C
   C158       1.0     0.770720     0.449740     0.349530    Uiso  0.012670 C
   C159       1.0     0.043560     0.728400     0.355060    Uiso  0.012670 C
   C160       1.0     0.859800     0.100890     0.512810    Uiso  0.012670 C
   C161       1.0     0.508330     0.680880     0.685110    Uiso  0.012670 C
   C162       1.0     0.315660     0.133790     0.980450    Uiso  0.012670 C
   C163       1.0     0.552000     0.882410     0.770360    Uiso  0.012670 C
   C164       1.0     0.771600     0.644940     0.543560    Uiso  0.012670 C
   C165       1.0     0.270290     0.386300     0.462840    Uiso  0.012670 C
   C166       1.0     0.319120     0.314890     0.491670    Uiso  0.012670 C
   C167       1.0     0.599710     0.361400     0.539320    Uiso  0.012670 C
   C168       1.0     0.133790     0.519550     0.815660    Uiso  0.012670 C
   C169       1.0     0.150470     0.229280     0.949740    Uiso  0.012670 C
   C170       1.0     0.184340     0.633790     0.980450    Uiso  0.012670 C
   C171       1.0     0.324790     0.978740     0.183980    Uiso  0.012670 C
   C172       1.0     0.229710     0.613700     0.962840    Uiso  0.012670 C
   C173       1.0     0.491670     0.180880     0.814890    Uiso  0.012670 C
   C174       1.0     0.644940     0.543560     0.771600    Uiso  0.012670 C
   C175       1.0     0.134350     0.318110     0.962500    Uiso  0.012670 C
   C176       1.0     0.803740     0.467650     0.268140    Uiso  0.012670 C
   C177       1.0     0.731860     0.303740     0.032350    Uiso  0.012670 C
   C178       1.0     0.855060     0.043560     0.771600    Uiso  0.012670 C
   C179       1.0     0.008330     0.680880     0.814890    Uiso  0.012670 C
   C180       1.0     0.318110     0.962500     0.134350    Uiso  0.012670 C
   C181       1.0     0.537500     0.634350     0.318110    Uiso  0.012670 C
   C182       1.0     0.886300     0.037160     0.729710    Uiso  0.012670 C
   C183       1.0     0.819120     0.314890     0.008330    Uiso  0.012670 C
   C184       1.0     0.729280     0.550260     0.849530    Uiso  0.012670 C
   C185       1.0     0.355060     0.456440     0.228400    Uiso  0.012670 C
   C186       1.0     0.532350     0.768140     0.696260    Uiso  0.012670 C
   C187       1.0     0.771600     0.855060     0.043560    Uiso  0.012670 C
   C188       1.0     0.729640     0.448000     0.382410    Uiso  0.012670 C
   C189       1.0     0.638600     0.039320     0.900290    Uiso  0.012670 C
   C190       1.0     0.728400     0.355060     0.043560    Uiso  0.012670 C
   C191       1.0     0.681890     0.462500     0.365650    Uiso  0.012670 C
   C192       1.0     0.650470     0.270720     0.050260    Uiso  0.012670 C
   C193       1.0     0.799900     0.735950     0.534020    Uiso  0.012670 C
   C194       1.0     0.640200     0.600890     0.512810    Uiso  0.012670 C
   C195       1.0     0.460680     0.400290     0.638600    Uiso  0.012670 C
   C196       1.0     0.965980     0.299900     0.735950    Uiso  0.012670 C
   C197       1.0     0.675210     0.021260     0.816020    Uiso  0.012670 C
   C198       1.0     0.803740     0.032350     0.768140    Uiso  0.012670 C
   C199       1.0     0.987190     0.359800     0.100890    Uiso  0.012670 C
   C200       1.0     0.519550     0.815660     0.133790    Uiso  0.012670 C
   C201       1.0     0.456440     0.228400     0.355060    Uiso  0.012670 C
   C202       1.0     0.683980     0.175210     0.021260    Uiso  0.012670 C
   C203       1.0     0.399110     0.012810     0.859800    Uiso  0.012670 C
   C204       1.0     0.634350     0.181890     0.037500    Uiso  0.012670 C
   C205       1.0     0.099710     0.138600     0.460680    Uiso  0.012670 C
   C206       1.0     0.050260     0.650470     0.270720    Uiso  0.012670 C
   C207       1.0     0.228400     0.355060     0.456440    Uiso  0.012670 C
   C208       1.0     0.200100     0.264050     0.465980    Uiso  0.012670 C
   C209       1.0     0.449740     0.349530     0.770720    Uiso  0.012670 C
   C210       1.0     0.948000     0.117590     0.270360    Uiso  0.012670 C
   C211       1.0     0.728400     0.144940     0.543560    Uiso  0.012670 C
   C212       1.0     0.271600     0.644940     0.956440    Uiso  0.012670 C
   C213       1.0     0.316020     0.824790     0.978740    Uiso  0.012670 C
   C214       1.0     0.816020     0.824790     0.521260    Uiso  0.012670 C
   C215       1.0     0.299900     0.764050     0.465980    Uiso  0.012670 C
   C216       1.0     0.696260     0.532350     0.768140    Uiso  0.012670 C
   C217       1.0     0.229280     0.949740     0.150470    Uiso  0.012670 C
   C218       1.0     0.480450     0.315660     0.366210    Uiso  0.012670 C
   C219       1.0     0.365650     0.681890     0.462500    Uiso  0.012670 C
   C220       1.0     0.696260     0.967650     0.268140    Uiso  0.012670 C
   C221       1.0     0.949740     0.150470     0.229280    Uiso  0.012670 C
   C222       1.0     0.037500     0.865650     0.681890    Uiso  0.012670 C
   C223       1.0     0.021260     0.816020     0.675210    Uiso  0.012670 C
   C224       1.0     0.366210     0.480450     0.315660    Uiso  0.012670 C
   C225       1.0     0.467650     0.268140     0.803740    Uiso  0.012670 C
   C226       1.0     0.900290     0.638600     0.039320    Uiso  0.012670 C
   C227       1.0     0.196260     0.532350     0.731860    Uiso  0.012670 C
   C228       1.0     0.640200     0.899110     0.012810    Uiso  0.012670 C
   C229       1.0     0.359800     0.399110     0.487190    Uiso  0.012670 C
   C230       1.0     0.899110     0.487190     0.140200    Uiso  0.012670 C
   C231       1.0     0.400290     0.861400     0.960680    Uiso  0.012670 C
   C232       1.0     0.859800     0.399110     0.012810    Uiso  0.012670 C
   C233       1.0     0.134350     0.181890     0.462500    Uiso  0.012670 C
   C234       1.0     0.600890     0.512810     0.640200    Uiso  0.012670 C
   C235       1.0     0.729710     0.613700     0.537160    Uiso  0.012670 C
   C236       1.0     0.814890     0.008330     0.680880    Uiso  0.012670 C
   C237       1.0     0.355060     0.043560     0.728400    Uiso  0.012670 C
   C238       1.0     0.814890     0.491670     0.180880    Uiso  0.012670 C
   C239       1.0     0.314890     0.008330     0.819120    Uiso  0.012670 C
   C240       1.0     0.229640     0.448000     0.117590    Uiso  0.012670 C
   C241       1.0     0.521260     0.683980     0.324790    Uiso  0.012670 C
   C242       1.0     0.150470     0.270720     0.449740    Uiso  0.012670 C
   C243       1.0     0.987190     0.140200     0.600890    Uiso  0.012670 C
   C244       1.0     0.478740     0.316020     0.675210    Uiso  0.012670 C
   C245       1.0     0.229280     0.550260     0.650470    Uiso  0.012670 C
   C246       1.0     0.314890     0.491670     0.319120    Uiso  0.012670 C
   C247       1.0     0.400290     0.638600     0.460680    Uiso  0.012670 C
   C248       1.0     0.617590     0.229640     0.052000    Uiso  0.012670 C
   C249       1.0     0.552000     0.617590     0.270360    Uiso  0.012670 C
   C250       1.0     0.633790     0.980450     0.184340    Uiso  0.012670 C
   C251       1.0     0.175210     0.478740     0.183980    Uiso  0.012670 C
   C252       1.0     0.037160     0.770290     0.386300    Uiso  0.012670 C
   C253       1.0     0.117590     0.229640     0.448000    Uiso  0.012670 C
   C254       1.0     0.824790     0.521260     0.816020    Uiso  0.012670 C
   C255       1.0     0.270720     0.449740     0.150470    Uiso  0.012670 C
   C256       1.0     0.866210     0.019550     0.684340    Uiso  0.012670 C
   C257       1.0     0.231860     0.196260     0.967650    Uiso  0.012670 C
   C258       1.0     0.181890     0.037500     0.634350    Uiso  0.012670 C
   C259       1.0     0.768140     0.696260     0.532350    Uiso  0.012670 C
   C260       1.0     0.980450     0.184340     0.633790    Uiso  0.012670 C
   C261       1.0     0.534020     0.700100     0.235950    Uiso  0.012670 C
   C262       1.0     0.685110     0.508330     0.680880    Uiso  0.012670 C
   C263       1.0     0.185110     0.508330     0.819120    Uiso  0.012670 C
   C264       1.0     0.948000     0.382410     0.770360    Uiso  0.012670 C
   C265       1.0     0.144940     0.543560     0.728400    Uiso  0.012670 C
   C266       1.0     0.008330     0.819120     0.314890    Uiso  0.012670 C
   C267       1.0     0.032350     0.768140     0.803740    Uiso  0.012670 C
   C268       1.0     0.456440     0.271600     0.855060    Uiso  0.012670 C
   C269       1.0     0.100890     0.987190     0.359800    Uiso  0.012670 C
   C270       1.0     0.382410     0.729640     0.448000    Uiso  0.012670 C
   C271       1.0     0.770720     0.050260     0.849530    Uiso  0.012670 C
   C272       1.0     0.799900     0.764050     0.034020    Uiso  0.012670 C
   C273       1.0     0.700100     0.235950     0.534020    Uiso  0.012670 C
   C274       1.0     0.991670     0.319120     0.185110    Uiso  0.012670 C
   C275       1.0     0.735950     0.965980     0.299900    Uiso  0.012670 C
   C276       1.0     0.534020     0.799900     0.735950    Uiso  0.012670 C
   C277       1.0     0.113700     0.962840     0.270290    Uiso  0.012670 C
   C278       1.0     0.467650     0.231860     0.303740    Uiso  0.012670 C
   C279       1.0     0.183980     0.324790     0.978740    Uiso  0.012670 C
   C280       1.0     0.731860     0.196260     0.532350    Uiso  0.012670 C
   C281       1.0     0.770360     0.552000     0.882410    Uiso  0.012670 C
   C282       1.0     0.815660     0.366210     0.019550    Uiso  0.012670 C
   C283       1.0     0.382410     0.770360     0.948000    Uiso  0.012670 C
   C284       1.0     0.184340     0.866210     0.480450    Uiso  0.012670 C
   C285       1.0     0.729640     0.052000     0.882410    Uiso  0.012670 C
   C286       1.0     0.967650     0.231860     0.196260    Uiso  0.012670 C
   C287       1.0     0.866210     0.480450     0.184340    Uiso  0.012670 C
   C288       1.0     0.855060     0.456440     0.271600    Uiso  0.012670 C
   N1         1.0     0.019560     0.783960     0.715280    Uiso  0.012670 N
   N2         1.0     0.985430     0.278270     0.215570    Uiso  0.012670 N
   N3         1.0     0.715570     0.985430     0.221730    Uiso  0.012670 N
   N4         1.0     0.014570     0.778270     0.284430    Uiso  0.012670 N
   N5         1.0     0.784720     0.980440     0.283960    Uiso  0.012670 N
   N6         1.0     0.284720     0.519560     0.716040    Uiso  0.012670 N
   N7         1.0     0.715570     0.514570     0.721730    Uiso  0.012670 N
   N8         1.0     0.221730     0.715570     0.985430    Uiso  0.012670 N
   N9         1.0     0.480440     0.216040     0.215280    Uiso  0.012670 N
   N10        1.0     0.514570     0.778270     0.215570    Uiso  0.012670 N
   N11        1.0     0.715280     0.480440     0.283960    Uiso  0.012670 N
   N12        1.0     0.221730     0.784430     0.485430    Uiso  0.012670 N
   N13        1.0     0.014570     0.721730     0.784430    Uiso  0.012670 N
   N14        1.0     0.784430     0.014570     0.721730    Uiso  0.012670 N
   N15        1.0     0.215570     0.985430     0.278270    Uiso  0.012670 N
   N16        1.0     0.278270     0.284430     0.485430    Uiso  0.012670 N
   N17        1.0     0.216040     0.215280     0.480440    Uiso  0.012670 N
   N18        1.0     0.783960     0.715280     0.019560    Uiso  0.012670 N
   N19        1.0     0.980440     0.283960     0.784720    Uiso  0.012670 N
   N20        1.0     0.215280     0.019560     0.716040    Uiso  0.012670 N
   N21        1.0     0.721730     0.784430     0.014570    Uiso  0.012670 N
   N22        1.0     0.783960     0.784720     0.519560    Uiso  0.012670 N
   N23        1.0     0.216040     0.284720     0.980440    Uiso  0.012670 N
   N24        1.0     0.278270     0.215570     0.985430    Uiso  0.012670 N
   N25        1.0     0.985430     0.221730     0.715570    Uiso  0.012670 N
   N26        1.0     0.485430     0.278270     0.284430    Uiso  0.012670 N
   N27        1.0     0.215570     0.514570     0.778270    Uiso  0.012670 N
   N28        1.0     0.716040     0.284720     0.519560    Uiso  0.012670 N
   N29        1.0     0.784430     0.485430     0.221730    Uiso  0.012670 N
   N30        1.0     0.215280     0.480440     0.216040    Uiso  0.012670 N
   N31        1.0     0.519560     0.783960     0.784720    Uiso  0.012670 N
   N32        1.0     0.721730     0.715570     0.514570    Uiso  0.012670 N
   N33        1.0     0.514570     0.721730     0.715570    Uiso  0.012670 N
   N34        1.0     0.283960     0.784720     0.980440    Uiso  0.012670 N
   N35        1.0     0.716040     0.215280     0.019560    Uiso  0.012670 N
   N36        1.0     0.284430     0.485430     0.278270    Uiso  0.012670 N
   N37        1.0     0.980440     0.216040     0.284720    Uiso  0.012670 N
   N38        1.0     0.485430     0.221730     0.784430    Uiso  0.012670 N
   N39        1.0     0.284720     0.980440     0.216040    Uiso  0.012670 N
   N40        1.0     0.284430     0.014570     0.778270    Uiso  0.012670 N
   N41        1.0     0.778270     0.284430     0.014570    Uiso  0.012670 N
   N42        1.0     0.784720     0.519560     0.783960    Uiso  0.012670 N
   N43        1.0     0.519560     0.716040     0.284720    Uiso  0.012670 N
   N44        1.0     0.480440     0.283960     0.715280    Uiso  0.012670 N
   N45        1.0     0.019560     0.716040     0.215280    Uiso  0.012670 N
   N46        1.0     0.283960     0.715280     0.480440    Uiso  0.012670 N
   N47        1.0     0.778270     0.215570     0.514570    Uiso  0.012670 N
   N48        1.0     0.715280     0.019560     0.783960    Uiso  0.012670 N
   Cl1        1.0     0.966900     0.710100     0.644900    Uiso  0.012670 Cl
   Cl2        1.0     0.355100     0.033100     0.289900    Uiso  0.012670 Cl
   Cl3        1.0     0.365750     0.202800     0.462200    Uiso  0.012670 Cl
   Cl4        1.0     0.855100     0.466900     0.710100    Uiso  0.012670 Cl
   Cl5        1.0     0.202800     0.037800     0.865750    Uiso  0.012670 Cl
   Cl6        1.0     0.033100     0.289900     0.355100    Uiso  0.012670 Cl
   Cl7        1.0     0.297200     0.537800     0.865750    Uiso  0.012670 Cl
   Cl8        1.0     0.710100     0.855100     0.466900    Uiso  0.012670 Cl
   Cl9        1.0     0.365750     0.297200     0.962200    Uiso  0.012670 Cl
   Cl10       1.0     0.144900     0.966900     0.789900    Uiso  0.012670 Cl
   Cl11       1.0     0.134250     0.797200     0.962200    Uiso  0.012670 Cl
   Cl12       1.0     0.202800     0.462200     0.365750    Uiso  0.012670 Cl
   Cl13       1.0     0.962200     0.134250     0.797200    Uiso  0.012670 Cl
   Cl14       1.0     0.037800     0.865750     0.202800    Uiso  0.012670 Cl
   Cl15       1.0     0.789900     0.355100     0.466900    Uiso  0.012670 Cl
   Cl16       1.0     0.297200     0.962200     0.365750    Uiso  0.012670 Cl
   Cl17       1.0     0.865750     0.297200     0.537800    Uiso  0.012670 Cl
   Cl18       1.0     0.037800     0.634250     0.702800    Uiso  0.012670 Cl
   Cl19       1.0     0.966900     0.789900     0.144900    Uiso  0.012670 Cl
   Cl20       1.0     0.537800     0.865750     0.297200    Uiso  0.012670 Cl
   Cl21       1.0     0.797200     0.962200     0.134250    Uiso  0.012670 Cl
   Cl22       1.0     0.962200     0.365750     0.297200    Uiso  0.012670 Cl
   Cl23       1.0     0.865750     0.202800     0.037800    Uiso  0.012670 Cl
   Cl24       1.0     0.210100     0.644900     0.533100    Uiso  0.012670 Cl
   Cl25       1.0     0.210100     0.855100     0.033100    Uiso  0.012670 Cl
   Cl26       1.0     0.462200     0.134250     0.702800    Uiso  0.012670 Cl
   Cl27       1.0     0.033100     0.210100     0.855100    Uiso  0.012670 Cl
   Cl28       1.0     0.289900     0.144900     0.533100    Uiso  0.012670 Cl
   Cl29       1.0     0.533100     0.289900     0.144900    Uiso  0.012670 Cl
   Cl30       1.0     0.710100     0.644900     0.966900    Uiso  0.012670 Cl
   Cl31       1.0     0.144900     0.533100     0.289900    Uiso  0.012670 Cl
   Cl32       1.0     0.533100     0.210100     0.644900    Uiso  0.012670 Cl
   Cl33       1.0     0.466900     0.710100     0.855100    Uiso  0.012670 Cl
   Cl34       1.0     0.855100     0.033100     0.210100    Uiso  0.012670 Cl
   Cl35       1.0     0.462200     0.365750     0.202800    Uiso  0.012670 Cl
   Cl36       1.0     0.702800     0.462200     0.134250    Uiso  0.012670 Cl
   Cl37       1.0     0.797200     0.537800     0.634250    Uiso  0.012670 Cl
   Cl38       1.0     0.537800     0.634250     0.797200    Uiso  0.012670 Cl
   Cl39       1.0     0.789900     0.144900     0.966900    Uiso  0.012670 Cl
   Cl40       1.0     0.634250     0.702800     0.037800    Uiso  0.012670 Cl
   Cl41       1.0     0.634250     0.797200     0.537800    Uiso  0.012670 Cl
   Cl42       1.0     0.644900     0.966900     0.710100    Uiso  0.012670 Cl
   Cl43       1.0     0.644900     0.533100     0.210100    Uiso  0.012670 Cl
   Cl44       1.0     0.134250     0.702800     0.462200    Uiso  0.012670 Cl
   Cl45       1.0     0.702800     0.037800     0.634250    Uiso  0.012670 Cl
   Cl46       1.0     0.289900     0.355100     0.033100    Uiso  0.012670 Cl
   Cl47       1.0     0.466900     0.789900     0.355100    Uiso  0.012670 Cl
   Cl48       1.0     0.355100     0.466900     0.789900    Uiso  0.012670 Cl
   O1         1.0     0.048000     0.505400     0.853000    Uiso  0.012670 O
   O2         1.0     0.382780     0.906670     0.963370    Uiso  0.012670 O
   O3         1.0     0.591300     0.868400     0.989300    Uiso  0.012670 O
   O4         1.0     0.906670     0.963370     0.382780    Uiso  0.012670 O
   O5         1.0     0.631600     0.010700     0.091300    Uiso  0.012670 O
   O6         1.0     0.930320     0.471710     0.946440    Uiso  0.012670 O
   O7         1.0     0.048000     0.994600     0.353000    Uiso  0.012670 O
   O8         1.0     0.548000     0.994600     0.147000    Uiso  0.012670 O
   O9         1.0     0.961220     0.948380     0.470480    Uiso  0.012670 O
   O10        1.0     0.598330     0.880580     0.996490    Uiso  0.012670 O
   O11        1.0     0.930320     0.028290     0.446440    Uiso  0.012670 O
   O12        1.0     0.028290     0.053560     0.430320    Uiso  0.012670 O
   O13        1.0     0.593330     0.463370     0.382780    Uiso  0.012670 O
   O14        1.0     0.038780     0.448380     0.029520    Uiso  0.012670 O
   O15        1.0     0.369800     0.587000     0.464500    Uiso  0.012670 O
   O16        1.0     0.354060     0.956370     0.051850    Uiso  0.012670 O
   O17        1.0     0.368400     0.510700     0.408700    Uiso  0.012670 O
   O18        1.0     0.630200     0.413000     0.535500    Uiso  0.012670 O
   O19        1.0     0.542100     0.153900     0.031500    Uiso  0.012670 O
   O20        1.0     0.468500     0.042100     0.153900    Uiso  0.012670 O
   O21        1.0     0.098330     0.619420     0.003510    Uiso  0.012670 O
   O22        1.0     0.531500     0.957900     0.846100    Uiso  0.012670 O
   O23        1.0     0.353000     0.452000     0.494600    Uiso  0.012670 O
   O24        1.0     0.031500     0.957900     0.653900    Uiso  0.012670 O
   O25        1.0     0.946490     0.023220     0.643390    Uiso  0.012670 O
   O26        1.0     0.913000     0.964500     0.369800    Uiso  0.012670 O
   O27        1.0     0.380580     0.503510     0.401670    Uiso  0.012670 O
   O28        1.0     0.035500     0.869800     0.587000    Uiso  0.012670 O
   O29        1.0     0.470480     0.961220     0.948380    Uiso  0.012670 O
   O30        1.0     0.457900     0.846100     0.968500    Uiso  0.012670 O
   O31        1.0     0.631600     0.489300     0.591300    Uiso  0.012670 O
   O32        1.0     0.593330     0.036630     0.882780    Uiso  0.012670 O
   O33        1.0     0.538780     0.448380     0.470480    Uiso  0.012670 O
   O34        1.0     0.996490     0.598330     0.880580    Uiso  0.012670 O
   O35        1.0     0.868400     0.510700     0.091300    Uiso  0.012670 O
   O36        1.0     0.946440     0.569680     0.971710    Uiso  0.012670 O
   O37        1.0     0.531500     0.542100     0.346100    Uiso  0.012670 O
   O38        1.0     0.643390     0.553510     0.523220    Uiso  0.012670 O
   O39        1.0     0.401670     0.380580     0.503510    Uiso  0.012670 O
   O40        1.0     0.494600     0.353000     0.452000    Uiso  0.012670 O
   O41        1.0     0.551850     0.354060     0.543630    Uiso  0.012670 O
   O42        1.0     0.535400     0.964600     0.035400    Uiso  0.012670 O
   O43        1.0     0.117220     0.406670     0.963370    Uiso  0.012670 O
   O44        1.0     0.543630     0.948150     0.854060    Uiso  0.012670 O
   O45        1.0     0.503510     0.401670     0.380580    Uiso  0.012670 O
   O46        1.0     0.946100     0.053900     0.553900    Uiso  0.012670 O
   O47        1.0     0.617220     0.406670     0.536630    Uiso  0.012670 O
   O48        1.0     0.143390     0.946490     0.476780    Uiso  0.012670 O
   O49        1.0     0.952000     0.005400     0.647000    Uiso  0.012670 O
   O50        1.0     0.489300     0.908700     0.131600    Uiso  0.012670 O
   O51        1.0     0.963370     0.117220     0.406670    Uiso  0.012670 O
   O52        1.0     0.035400     0.535400     0.964600    Uiso  0.012670 O
   O53        1.0     0.005400     0.853000     0.452000    Uiso  0.012670 O
   O54        1.0     0.542100     0.346100     0.531500    Uiso  0.012670 O
   O55        1.0     0.653900     0.468500     0.457900    Uiso  0.012670 O
   O56        1.0     0.956370     0.051850     0.354060    Uiso  0.012670 O
   O57        1.0     0.091300     0.868400     0.510700    Uiso  0.012670 O
   O58        1.0     0.528290     0.446440     0.569680    Uiso  0.012670 O
   O59        1.0     0.130200     0.413000     0.964500    Uiso  0.012670 O
   O60        1.0     0.846100     0.968500     0.457900    Uiso  0.012670 O
   O61        1.0     0.510700     0.091300     0.868400    Uiso  0.012670 O
   O62        1.0     0.489300     0.591300     0.631600    Uiso  0.012670 O
   O63        1.0     0.510700     0.408700     0.368400    Uiso  0.012670 O
   O64        1.0     0.145940     0.456370     0.051850    Uiso  0.012670 O
   O65        1.0     0.476780     0.143390     0.946490    Uiso  0.012670 O
   O66        1.0     0.971710     0.946440     0.569680    Uiso  0.012670 O
   O67        1.0     0.971710     0.553560     0.069680    Uiso  0.012670 O
   O68        1.0     0.035400     0.964600     0.464600    Uiso  0.012670 O
   O69        1.0     0.401670     0.119420     0.003510    Uiso  0.012670 O
   O70        1.0     0.131600     0.010700     0.408700    Uiso  0.012670 O
   O71        1.0     0.587000     0.464500     0.369800    Uiso  0.012670 O
   O72        1.0     0.976780     0.143390     0.553510    Uiso  0.012670 O
   O73        1.0     0.869800     0.913000     0.535500    Uiso  0.012670 O
   O74        1.0     0.119420     0.496490     0.901670    Uiso  0.012670 O
   O75        1.0     0.548000     0.505400     0.647000    Uiso  0.012670 O
   O76        1.0     0.430320     0.471710     0.553560    Uiso  0.012670 O
   O77        1.0     0.448380     0.470480     0.538780    Uiso  0.012670 O
   O78        1.0     0.093330     0.036630     0.617220    Uiso  0.012670 O
   O79        1.0     0.630200     0.087000     0.035500    Uiso  0.012670 O
   O80        1.0     0.846100     0.531500     0.957900    Uiso  0.012670 O
   O81        1.0     0.463370     0.382780     0.593330    Uiso  0.012670 O
   O82        1.0     0.970480     0.961220     0.551620    Uiso  0.012670 O
   O83        1.0     0.553560     0.430320     0.471710    Uiso  0.012670 O
   O84        1.0     0.456370     0.051850     0.145940    Uiso  0.012670 O
   O85        1.0     0.153900     0.031500     0.542100    Uiso  0.012670 O
   O86        1.0     0.946440     0.930320     0.471710    Uiso  0.012670 O
   O87        1.0     0.569680     0.528290     0.446440    Uiso  0.012670 O
   O88        1.0     0.946100     0.446100     0.053900    Uiso  0.012670 O
   O89        1.0     0.535500     0.630200     0.413000    Uiso  0.012670 O
   O90        1.0     0.093330     0.463370     0.117220    Uiso  0.012670 O
   O91        1.0     0.051620     0.529520     0.038780    Uiso  0.012670 O
   O92        1.0     0.856610     0.446490     0.023220    Uiso  0.012670 O
   O93        1.0     0.446490     0.476780     0.356610    Uiso  0.012670 O
   O94        1.0     0.645940     0.043630     0.948150    Uiso  0.012670 O
   O95        1.0     0.053900     0.946100     0.446100    Uiso  0.012670 O
   O96        1.0     0.029520     0.461220     0.948380    Uiso  0.012670 O
   O97        1.0     0.494600     0.147000     0.952000    Uiso  0.012670 O
   O98        1.0     0.119420     0.003510     0.401670    Uiso  0.012670 O
   O99        1.0     0.854060     0.543630     0.948150    Uiso  0.012670 O
   O100       1.0     0.964600     0.035400     0.535400    Uiso  0.012670 O
   O101       1.0     0.523220     0.643390     0.553510    Uiso  0.012670 O
   O102       1.0     0.464600     0.035400     0.964600    Uiso  0.012670 O
   O103       1.0     0.908700     0.368400     0.989300    Uiso  0.012670 O
   O104       1.0     0.010700     0.091300     0.631600    Uiso  0.012670 O
   O105       1.0     0.464500     0.130200     0.087000    Uiso  0.012670 O
   O106       1.0     0.587000     0.035500     0.869800    Uiso  0.012670 O
   O107       1.0     0.961220     0.551620     0.970480    Uiso  0.012670 O
   O108       1.0     0.952000     0.494600     0.147000    Uiso  0.012670 O
   O109       1.0     0.906670     0.536630     0.882780    Uiso  0.012670 O
   O110       1.0     0.880580     0.503510     0.098330    Uiso  0.012670 O
   O111       1.0     0.470480     0.538780     0.448380    Uiso  0.012670 O
   O112       1.0     0.970480     0.538780     0.051620    Uiso  0.012670 O
   O113       1.0     0.353000     0.048000     0.994600    Uiso  0.012670 O
   O114       1.0     0.043630     0.948150     0.645940    Uiso  0.012670 O
   O115       1.0     0.408700     0.131600     0.010700    Uiso  0.012670 O
   O116       1.0     0.354060     0.543630     0.551850    Uiso  0.012670 O
   O117       1.0     0.446490     0.023220     0.856610    Uiso  0.012670 O
   O118       1.0     0.147000     0.952000     0.494600    Uiso  0.012670 O
   O119       1.0     0.551620     0.529520     0.461220    Uiso  0.012670 O
   O120       1.0     0.028290     0.446440     0.930320    Uiso  0.012670 O
   O121       1.0     0.994600     0.147000     0.548000    Uiso  0.012670 O
   O122       1.0     0.643390     0.946490     0.023220    Uiso  0.012670 O
   O123       1.0     0.523220     0.856610     0.053510    Uiso  0.012670 O
   O124       1.0     0.551850     0.145940     0.043630    Uiso  0.012670 O
   O125       1.0     0.038780     0.051620     0.529520    Uiso  0.012670 O
   O126       1.0     0.854060     0.956370     0.448150    Uiso  0.012670 O
   O127       1.0     0.448380     0.029520     0.038780    Uiso  0.012670 O
   O128       1.0     0.446440     0.930320     0.028290    Uiso  0.012670 O
   O129       1.0     0.535500     0.869800     0.913000    Uiso  0.012670 O
   O130       1.0     0.051850     0.145940     0.456370    Uiso  0.012670 O
   O131       1.0     0.553510     0.976780     0.143390    Uiso  0.012670 O
   O132       1.0     0.457900     0.653900     0.468500    Uiso  0.012670 O
   O133       1.0     0.989300     0.908700     0.368400    Uiso  0.012670 O
   O134       1.0     0.446100     0.053900     0.946100    Uiso  0.012670 O
   O135       1.0     0.147000     0.548000     0.994600    Uiso  0.012670 O
   O136       1.0     0.880580     0.996490     0.598330    Uiso  0.012670 O
   O137       1.0     0.406670     0.536630     0.617220    Uiso  0.012670 O
   O138       1.0     0.591300     0.631600     0.489300    Uiso  0.012670 O
   O139       1.0     0.553510     0.523220     0.643390    Uiso  0.012670 O
   O140       1.0     0.908700     0.131600     0.489300    Uiso  0.012670 O
   O141       1.0     0.003510     0.401670     0.119420    Uiso  0.012670 O
   O142       1.0     0.087000     0.464500     0.130200    Uiso  0.012670 O
   O143       1.0     0.087000     0.035500     0.630200    Uiso  0.012670 O
   O144       1.0     0.496490     0.598330     0.619420    Uiso  0.012670 O
   O145       1.0     0.553560     0.069680     0.971710    Uiso  0.012670 O
   O146       1.0     0.042100     0.153900     0.468500    Uiso  0.012670 O
   O147       1.0     0.069680     0.528290     0.053560    Uiso  0.012670 O
   O148       1.0     0.452000     0.494600     0.353000    Uiso  0.012670 O
   O149       1.0     0.406670     0.963370     0.117220    Uiso  0.012670 O
   O150       1.0     0.053510     0.976780     0.356610    Uiso  0.012670 O
   O151       1.0     0.369800     0.913000     0.964500    Uiso  0.012670 O
   O152       1.0     0.382780     0.593330     0.463370    Uiso  0.012670 O
   O153       1.0     0.153900     0.468500     0.042100    Uiso  0.012670 O
   O154       1.0     0.529520     0.461220     0.551620    Uiso  0.012670 O
   O155       1.0     0.569680     0.971710     0.946440    Uiso  0.012670 O
   O156       1.0     0.653900     0.031500     0.957900    Uiso  0.012670 O
   O157       1.0     0.117220     0.093330     0.463370    Uiso  0.012670 O
   O158       1.0     0.464600     0.464600     0.464600    Uiso  0.012670 O
   O159       1.0     0.553900     0.946100     0.053900    Uiso  0.012670 O
   O160       1.0     0.130200     0.087000     0.464500    Uiso  0.012670 O
   O161       1.0     0.505400     0.647000     0.548000    Uiso  0.012670 O
   O162       1.0     0.647000     0.952000     0.005400    Uiso  0.012670 O
   O163       1.0     0.031500     0.542100     0.153900    Uiso  0.012670 O
   O164       1.0     0.368400     0.989300     0.908700    Uiso  0.012670 O
   O165       1.0     0.948150     0.645940     0.043630    Uiso  0.012670 O
   O166       1.0     0.994600     0.353000     0.048000    Uiso  0.012670 O
   O167       1.0     0.003510     0.098330     0.619420    Uiso  0.012670 O
   O168       1.0     0.964500     0.130200     0.413000    Uiso  0.012670 O
   O169       1.0     0.996490     0.901670     0.380580    Uiso  0.012670 O
   O170       1.0     0.968500     0.042100     0.346100    Uiso  0.012670 O
   O171       1.0     0.853000     0.048000     0.505400    Uiso  0.012670 O
   O172       1.0     0.535400     0.535400     0.535400    Uiso  0.012670 O
   O173       1.0     0.868400     0.989300     0.591300    Uiso  0.012670 O
   O174       1.0     0.536630     0.617220     0.406670    Uiso  0.012670 O
   O175       1.0     0.413000     0.535500     0.630200    Uiso  0.012670 O
   O176       1.0     0.036630     0.617220     0.093330    Uiso  0.012670 O
   O177       1.0     0.598330     0.619420     0.496490    Uiso  0.012670 O
   O178       1.0     0.856610     0.053510     0.523220    Uiso  0.012670 O
   O179       1.0     0.043630     0.551850     0.145940    Uiso  0.012670 O
   O180       1.0     0.901670     0.380580     0.996490    Uiso  0.012670 O
   O181       1.0     0.536630     0.882780     0.906670    Uiso  0.012670 O
   O182       1.0     0.476780     0.356610     0.446490    Uiso  0.012670 O
   O183       1.0     0.976780     0.356610     0.053510    Uiso  0.012670 O
   O184       1.0     0.446100     0.446100     0.446100    Uiso  0.012670 O
   O185       1.0     0.010700     0.408700     0.131600    Uiso  0.012670 O
   O186       1.0     0.968500     0.457900     0.846100    Uiso  0.012670 O
   O187       1.0     0.029520     0.038780     0.448380    Uiso  0.012670 O
   O188       1.0     0.538780     0.051620     0.970480    Uiso  0.012670 O
   O189       1.0     0.619420     0.496490     0.598330    Uiso  0.012670 O
   O190       1.0     0.964600     0.464600     0.035400    Uiso  0.012670 O
   O191       1.0     0.098330     0.880580     0.503510    Uiso  0.012670 O
   O192       1.0     0.617220     0.093330     0.036630    Uiso  0.012670 O
   O193       1.0     0.005400     0.647000     0.952000    Uiso  0.012670 O
   O194       1.0     0.413000     0.964500     0.130200    Uiso  0.012670 O
   O195       1.0     0.528290     0.053560     0.069680    Uiso  0.012670 O
   O196       1.0     0.496490     0.901670     0.119420    Uiso  0.012670 O
   O197       1.0     0.543630     0.551850     0.354060    Uiso  0.012670 O
   O198       1.0     0.452000     0.005400     0.853000    Uiso  0.012670 O
   O199       1.0     0.042100     0.346100     0.968500    Uiso  0.012670 O
   O200       1.0     0.471710     0.946440     0.930320    Uiso  0.012670 O
   O201       1.0     0.882780     0.593330     0.036630    Uiso  0.012670 O
   O202       1.0     0.647000     0.548000     0.505400    Uiso  0.012670 O
   O203       1.0     0.956370     0.448150     0.854060    Uiso  0.012670 O
   O204       1.0     0.551620     0.970480     0.961220    Uiso  0.012670 O
   O205       1.0     0.448150     0.645940     0.456370    Uiso  0.012670 O
   O206       1.0     0.346100     0.968500     0.042100    Uiso  0.012670 O
   O207       1.0     0.853000     0.452000     0.005400    Uiso  0.012670 O
   O208       1.0     0.430320     0.028290     0.053560    Uiso  0.012670 O
   O209       1.0     0.901670     0.119420     0.496490    Uiso  0.012670 O
   O210       1.0     0.948150     0.854060     0.543630    Uiso  0.012670 O
   O211       1.0     0.053560     0.430320     0.028290    Uiso  0.012670 O
   O212       1.0     0.957900     0.653900     0.031500    Uiso  0.012670 O
   O213       1.0     0.446440     0.569680     0.528290    Uiso  0.012670 O
   O214       1.0     0.946490     0.476780     0.143390    Uiso  0.012670 O
   O215       1.0     0.461220     0.551620     0.529520    Uiso  0.012670 O
   O216       1.0     0.553900     0.553900     0.553900    Uiso  0.012670 O
   O217       1.0     0.023220     0.643390     0.946490    Uiso  0.012670 O
   O218       1.0     0.051620     0.970480     0.538780    Uiso  0.012670 O
   O219       1.0     0.051850     0.354060     0.956370    Uiso  0.012670 O
   O220       1.0     0.069680     0.971710     0.553560    Uiso  0.012670 O
   O221       1.0     0.957900     0.846100     0.531500    Uiso  0.012670 O
   O222       1.0     0.053560     0.069680     0.528290    Uiso  0.012670 O
   O223       1.0     0.464500     0.369800     0.587000    Uiso  0.012670 O
   O224       1.0     0.461220     0.948380     0.029520    Uiso  0.012670 O
   O225       1.0     0.948380     0.470480     0.961220    Uiso  0.012670 O
   O226       1.0     0.964500     0.369800     0.913000    Uiso  0.012670 O
   O227       1.0     0.882780     0.906670     0.536630    Uiso  0.012670 O
   O228       1.0     0.143390     0.553510     0.976780    Uiso  0.012670 O
   O229       1.0     0.463370     0.117220     0.093330    Uiso  0.012670 O
   O230       1.0     0.989300     0.591300     0.868400    Uiso  0.012670 O
   O231       1.0     0.505400     0.853000     0.048000    Uiso  0.012670 O
   O232       1.0     0.131600     0.489300     0.908700    Uiso  0.012670 O
   O233       1.0     0.948380     0.029520     0.461220    Uiso  0.012670 O
   O234       1.0     0.471710     0.553560     0.430320    Uiso  0.012670 O
   O235       1.0     0.035500     0.630200     0.087000    Uiso  0.012670 O
   O236       1.0     0.448150     0.854060     0.956370    Uiso  0.012670 O
   O237       1.0     0.380580     0.996490     0.901670    Uiso  0.012670 O
   O238       1.0     0.468500     0.457900     0.653900    Uiso  0.012670 O
   O239       1.0     0.503510     0.098330     0.880580    Uiso  0.012670 O
   O240       1.0     0.053900     0.553900     0.946100    Uiso  0.012670 O
   O241       1.0     0.091300     0.631600     0.010700    Uiso  0.012670 O
   O242       1.0     0.356610     0.053510     0.976780    Uiso  0.012670 O
   O243       1.0     0.645940     0.456370     0.448150    Uiso  0.012670 O
   O244       1.0     0.346100     0.531500     0.542100    Uiso  0.012670 O
   O245       1.0     0.619420     0.003510     0.098330    Uiso  0.012670 O
   O246       1.0     0.145940     0.043630     0.551850    Uiso  0.012670 O
   O247       1.0     0.913000     0.535500     0.869800    Uiso  0.012670 O
   O248       1.0     0.869800     0.587000     0.035500    Uiso  0.012670 O
   O249       1.0     0.356610     0.446490     0.476780    Uiso  0.012670 O
   O250       1.0     0.036630     0.882780     0.593330    Uiso  0.012670 O
   O251       1.0     0.456370     0.448150     0.645940    Uiso  0.012670 O
   O252       1.0     0.053510     0.523220     0.856610    Uiso  0.012670 O
   O253       1.0     0.529520     0.038780     0.051620    Uiso  0.012670 O
   O254       1.0     0.408700     0.368400     0.510700    Uiso  0.012670 O
   O255       1.0     0.023220     0.856610     0.446490    Uiso  0.012670 O
   O256       1.0     0.963370     0.382780     0.906670    Uiso  0.012670 O
