data_image0
_cell_length_a       33.4232
_cell_length_b       33.4232
_cell_length_c       33.4232
_cell_angle_alpha    60.4952
_cell_angle_beta     60.4952
_cell_angle_gamma    60.4952

_symmetry_space_group_name_H-M    P 1
_symmetry_int_tables_number       1

loop_
  _symmetry_equiv_pos_as_xyz
  'x, y, z'

loop_
  _atom_site_label
  _atom_site_occupancy
  _atom_site_fract_x
  _atom_site_fract_y
  _atom_site_fract_z
  _atom_site_thermal_displace_type
  _atom_site_B_iso_or_equiv
  _atom_site_type_symbol
  Cu1      1.0000 0.13286  0.59423  0.05462  Biso   1.000  Cu
  Cu2      1.0000 0.05462  0.13286  0.59423  Biso   1.000  Cu
  Cu3      1.0000 0.59423  0.05462  0.13286  Biso   1.000  Cu
  Cu4      1.0000 0.59423  0.13286  0.05462  Biso   1.000  Cu
  Cu5      1.0000 0.13286  0.05462  0.59423  Biso   1.000  Cu
  Cu6      1.0000 0.05462  0.59423  0.13286  Biso   1.000  Cu
  Cu7      1.0000 0.05553  0.59310  0.59310  Biso   1.000  Cu
  Cu8      1.0000 0.13300  0.59467  0.59467  Biso   1.000  Cu
  Cu9      1.0000 0.59310  0.05553  0.59310  Biso   1.000  Cu
  Cu10     1.0000 0.59467  0.13300  0.59467  Biso   1.000  Cu
  Cu11     1.0000 0.59310  0.59310  0.05553  Biso   1.000  Cu
  Cu12     1.0000 0.59467  0.59467  0.13300  Biso   1.000  Cu
  H1       1.0000 0.97250  0.56550  0.08810  Biso   1.000  H
  H2       1.0000 0.93250  0.56570  0.04810  Biso   1.000  H
  H3       1.0000 0.01450  0.56710  0.89630  Biso   1.000  H
  H4       1.0000 0.02910  0.60340  0.81750  Biso   1.000  H
  H5       1.0000 0.07030  0.60470  0.73840  Biso   1.000  H
  H6       1.0000 0.94990  0.53350  0.83490  Biso   1.000  H
  H7       1.0000 0.98870  0.53880  0.75420  Biso   1.000  H
  H8       1.0000 0.10090  0.61990  0.21470  Biso   1.000  H
  H9       1.0000 0.13860  0.62640  0.25300  Biso   1.000  H
  H10      1.0000 0.17240  0.62170  0.29110  Biso   1.000  H
  H11      1.0000 0.15140  0.59320  0.36850  Biso   1.000  H
  H12      1.0000 0.11320  0.59000  0.44770  Biso   1.000  H
  H13      1.0000 0.21320  0.62720  0.43920  Biso   1.000  H
  H14      1.0000 0.25040  0.63400  0.35830  Biso   1.000  H
  H15      1.0000 0.96900  0.74620  0.08400  Biso   1.000  H
  H16      1.0000 0.93020  0.82460  0.04590  Biso   1.000  H
  H17      1.0000 0.10570  0.44410  0.22270  Biso   1.000  H
  H18      1.0000 0.14580  0.36690  0.26190  Biso   1.000  H
  H19      1.0000 0.29200  0.60140  0.87220  Biso   1.000  H
  H20      1.0000 0.17450  0.56110  0.97120  Biso   1.000  H
  H21      1.0000 0.23780  0.56310  0.89690  Biso   1.000  H
  H22      1.0000 0.28380  0.63680  0.92180  Biso   1.000  H
  H23      1.0000 0.22020  0.63460  0.99600  Biso   1.000  H
  H24      1.0000 0.08810  0.97250  0.56550  Biso   1.000  H
  H25      1.0000 0.04810  0.93250  0.56570  Biso   1.000  H
  H26      1.0000 0.89630  0.01450  0.56710  Biso   1.000  H
  H27      1.0000 0.81750  0.02910  0.60340  Biso   1.000  H
  H28      1.0000 0.73840  0.07030  0.60470  Biso   1.000  H
  H29      1.0000 0.83490  0.94990  0.53350  Biso   1.000  H
  H30      1.0000 0.75420  0.98870  0.53880  Biso   1.000  H
  H31      1.0000 0.21470  0.10090  0.61990  Biso   1.000  H
  H32      1.0000 0.25300  0.13860  0.62640  Biso   1.000  H
  H33      1.0000 0.29110  0.17240  0.62170  Biso   1.000  H
  H34      1.0000 0.36850  0.15140  0.59320  Biso   1.000  H
  H35      1.0000 0.44770  0.11320  0.59000  Biso   1.000  H
  H36      1.0000 0.43920  0.21320  0.62720  Biso   1.000  H
  H37      1.0000 0.35830  0.25040  0.63400  Biso   1.000  H
  H38      1.0000 0.08400  0.96900  0.74620  Biso   1.000  H
  H39      1.0000 0.04590  0.93020  0.82460  Biso   1.000  H
  H40      1.0000 0.22270  0.10570  0.44410  Biso   1.000  H
  H41      1.0000 0.26190  0.14580  0.36690  Biso   1.000  H
  H42      1.0000 0.87220  0.29200  0.60140  Biso   1.000  H
  H43      1.0000 0.97120  0.17450  0.56110  Biso   1.000  H
  H44      1.0000 0.89690  0.23780  0.56310  Biso   1.000  H
  H45      1.0000 0.92180  0.28380  0.63680  Biso   1.000  H
  H46      1.0000 0.99600  0.22020  0.63460  Biso   1.000  H
  H47      1.0000 0.56550  0.08810  0.97250  Biso   1.000  H
  H48      1.0000 0.56570  0.04810  0.93250  Biso   1.000  H
  H49      1.0000 0.56710  0.89630  0.01450  Biso   1.000  H
  H50      1.0000 0.60340  0.81750  0.02910  Biso   1.000  H
  H51      1.0000 0.60470  0.73840  0.07030  Biso   1.000  H
  H52      1.0000 0.53350  0.83490  0.94990  Biso   1.000  H
  H53      1.0000 0.53880  0.75420  0.98870  Biso   1.000  H
  H54      1.0000 0.61990  0.21470  0.10090  Biso   1.000  H
  H55      1.0000 0.62640  0.25300  0.13860  Biso   1.000  H
  H56      1.0000 0.62170  0.29110  0.17240  Biso   1.000  H
  H57      1.0000 0.59320  0.36850  0.15140  Biso   1.000  H
  H58      1.0000 0.59000  0.44770  0.11320  Biso   1.000  H
  H59      1.0000 0.62720  0.43920  0.21320  Biso   1.000  H
  H60      1.0000 0.63400  0.35830  0.25040  Biso   1.000  H
  H61      1.0000 0.74620  0.08400  0.96900  Biso   1.000  H
  H62      1.0000 0.82460  0.04590  0.93020  Biso   1.000  H
  H63      1.0000 0.44410  0.22270  0.10570  Biso   1.000  H
  H64      1.0000 0.36690  0.26190  0.14580  Biso   1.000  H
  H65      1.0000 0.60140  0.87220  0.29200  Biso   1.000  H
  H66      1.0000 0.56110  0.97120  0.17450  Biso   1.000  H
  H67      1.0000 0.56310  0.89690  0.23780  Biso   1.000  H
  H68      1.0000 0.63680  0.92180  0.28380  Biso   1.000  H
  H69      1.0000 0.63460  0.99600  0.22020  Biso   1.000  H
  H70      1.0000 0.56550  0.97250  0.08810  Biso   1.000  H
  H71      1.0000 0.56570  0.93250  0.04810  Biso   1.000  H
  H72      1.0000 0.56710  0.01450  0.89630  Biso   1.000  H
  H73      1.0000 0.60340  0.02910  0.81750  Biso   1.000  H
  H74      1.0000 0.60470  0.07030  0.73840  Biso   1.000  H
  H75      1.0000 0.53350  0.94990  0.83490  Biso   1.000  H
  H76      1.0000 0.53880  0.98870  0.75420  Biso   1.000  H
  H77      1.0000 0.61990  0.10090  0.21470  Biso   1.000  H
  H78      1.0000 0.62640  0.13860  0.25300  Biso   1.000  H
  H79      1.0000 0.62170  0.17240  0.29110  Biso   1.000  H
  H80      1.0000 0.59320  0.15140  0.36850  Biso   1.000  H
  H81      1.0000 0.59000  0.11320  0.44770  Biso   1.000  H
  H82      1.0000 0.62720  0.21320  0.43920  Biso   1.000  H
  H83      1.0000 0.63400  0.25040  0.35830  Biso   1.000  H
  H84      1.0000 0.74620  0.96900  0.08400  Biso   1.000  H
  H85      1.0000 0.82460  0.93020  0.04590  Biso   1.000  H
  H86      1.0000 0.44410  0.10570  0.22270  Biso   1.000  H
  H87      1.0000 0.36690  0.14580  0.26190  Biso   1.000  H
  H88      1.0000 0.60140  0.29200  0.87220  Biso   1.000  H
  H89      1.0000 0.56110  0.17450  0.97120  Biso   1.000  H
  H90      1.0000 0.56310  0.23780  0.89690  Biso   1.000  H
  H91      1.0000 0.63680  0.28380  0.92180  Biso   1.000  H
  H92      1.0000 0.63460  0.22020  0.99600  Biso   1.000  H
  H93      1.0000 0.97250  0.08810  0.56550  Biso   1.000  H
  H94      1.0000 0.93250  0.04810  0.56570  Biso   1.000  H
  H95      1.0000 0.01450  0.89630  0.56710  Biso   1.000  H
  H96      1.0000 0.02910  0.81750  0.60340  Biso   1.000  H
  H97      1.0000 0.07030  0.73840  0.60470  Biso   1.000  H
  H98      1.0000 0.94990  0.83490  0.53350  Biso   1.000  H
  H99      1.0000 0.98870  0.75420  0.53880  Biso   1.000  H
  H100     1.0000 0.10090  0.21470  0.61990  Biso   1.000  H
  H101     1.0000 0.13860  0.25300  0.62640  Biso   1.000  H
  H102     1.0000 0.17240  0.29110  0.62170  Biso   1.000  H
  H103     1.0000 0.15140  0.36850  0.59320  Biso   1.000  H
  H104     1.0000 0.11320  0.44770  0.59000  Biso   1.000  H
  H105     1.0000 0.21320  0.43920  0.62720  Biso   1.000  H
  H106     1.0000 0.25040  0.35830  0.63400  Biso   1.000  H
  H107     1.0000 0.96900  0.08400  0.74620  Biso   1.000  H
  H108     1.0000 0.93020  0.04590  0.82460  Biso   1.000  H
  H109     1.0000 0.10570  0.22270  0.44410  Biso   1.000  H
  H110     1.0000 0.14580  0.26190  0.36690  Biso   1.000  H
  H111     1.0000 0.29200  0.87220  0.60140  Biso   1.000  H
  H112     1.0000 0.17450  0.97120  0.56110  Biso   1.000  H
  H113     1.0000 0.23780  0.89690  0.56310  Biso   1.000  H
  H114     1.0000 0.28380  0.92180  0.63680  Biso   1.000  H
  H115     1.0000 0.22020  0.99600  0.63460  Biso   1.000  H
  H116     1.0000 0.08810  0.56550  0.97250  Biso   1.000  H
  H117     1.0000 0.04810  0.56570  0.93250  Biso   1.000  H
  H118     1.0000 0.89630  0.56710  0.01450  Biso   1.000  H
  H119     1.0000 0.81750  0.60340  0.02910  Biso   1.000  H
  H120     1.0000 0.73840  0.60470  0.07030  Biso   1.000  H
  H121     1.0000 0.83490  0.53350  0.94990  Biso   1.000  H
  H122     1.0000 0.75420  0.53880  0.98870  Biso   1.000  H
  H123     1.0000 0.21470  0.61990  0.10090  Biso   1.000  H
  H124     1.0000 0.25300  0.62640  0.13860  Biso   1.000  H
  H125     1.0000 0.29110  0.62170  0.17240  Biso   1.000  H
  H126     1.0000 0.36850  0.59320  0.15140  Biso   1.000  H
  H127     1.0000 0.44770  0.59000  0.11320  Biso   1.000  H
  H128     1.0000 0.43920  0.62720  0.21320  Biso   1.000  H
  H129     1.0000 0.35830  0.63400  0.25040  Biso   1.000  H
  H130     1.0000 0.08400  0.74620  0.96900  Biso   1.000  H
  H131     1.0000 0.04590  0.82460  0.93020  Biso   1.000  H
  H132     1.0000 0.22270  0.44410  0.10570  Biso   1.000  H
  H133     1.0000 0.26190  0.36690  0.14580  Biso   1.000  H
  H134     1.0000 0.87220  0.60140  0.29200  Biso   1.000  H
  H135     1.0000 0.97120  0.56110  0.17450  Biso   1.000  H
  H136     1.0000 0.89690  0.56310  0.23780  Biso   1.000  H
  H137     1.0000 0.92180  0.63680  0.28380  Biso   1.000  H
  H138     1.0000 0.99600  0.63460  0.22020  Biso   1.000  H
  H139     1.0000 0.02430  0.55175  0.55175  Biso   1.000  H
  H140     1.0000 0.94540  0.55640  0.55640  Biso   1.000  H
  H141     1.0000 0.88690  0.58910  0.58910  Biso   1.000  H
  H142     1.0000 0.87390  0.63370  0.63370  Biso   1.000  H
  H143     1.0000 0.94750  0.63245  0.63245  Biso   1.000  H
  H144     1.0000 0.55175  0.02430  0.55175  Biso   1.000  H
  H145     1.0000 0.55640  0.94540  0.55640  Biso   1.000  H
  H146     1.0000 0.58910  0.88690  0.58910  Biso   1.000  H
  H147     1.0000 0.63370  0.87390  0.63370  Biso   1.000  H
  H148     1.0000 0.63245  0.94750  0.63245  Biso   1.000  H
  H149     1.0000 0.55175  0.55175  0.02430  Biso   1.000  H
  H150     1.0000 0.55640  0.55640  0.94540  Biso   1.000  H
  H151     1.0000 0.58910  0.58910  0.88690  Biso   1.000  H
  H152     1.0000 0.63370  0.63370  0.87390  Biso   1.000  H
  H153     1.0000 0.63245  0.63245  0.94750  Biso   1.000  H
  H154     1.0000 0.89530  0.56670  0.89530  Biso   1.000  H
  H155     1.0000 0.89530  0.89530  0.56670  Biso   1.000  H
  H156     1.0000 0.56670  0.89530  0.89530  Biso   1.000  H
  H157     1.0000 0.29430  0.61360  0.29430  Biso   1.000  H
  H158     1.0000 0.29430  0.29430  0.61360  Biso   1.000  H
  H159     1.0000 0.61360  0.29430  0.29430  Biso   1.000  H
  H160     1.0000 0.89505  0.89505  0.01330  Biso   1.000  H
  H161     1.0000 0.01330  0.89505  0.89505  Biso   1.000  H
  H162     1.0000 0.89505  0.01330  0.89505  Biso   1.000  H
  H163     1.0000 0.29720  0.29720  0.17810  Biso   1.000  H
  H164     1.0000 0.17810  0.29720  0.29720  Biso   1.000  H
  H165     1.0000 0.29720  0.17810  0.29720  Biso   1.000  H
  C1       1.0000 0.98789  0.56778  0.05543  Biso   1.000  C
  C2       1.0000 0.96421  0.56679  0.03147  Biso   1.000  C
  C3       1.0000 0.98265  0.56670  0.91217  Biso   1.000  C
  C4       1.0000 0.98419  0.56844  0.83617  Biso   1.000  C
  C5       1.0000 0.02084  0.58998  0.80525  Biso   1.000  C
  C6       1.0000 0.04490  0.59187  0.75740  Biso   1.000  C
  C7       1.0000 0.97324  0.54887  0.81560  Biso   1.000  C
  C8       1.0000 0.99669  0.55214  0.76680  Biso   1.000  C
  C9       1.0000 0.03085  0.57426  0.73725  Biso   1.000  C
  C10      1.0000 0.05529  0.57937  0.68442  Biso   1.000  C
  C11      1.0000 0.95935  0.56666  0.88691  Biso   1.000  C
  C12      1.0000 0.13279  0.62025  0.19848  Biso   1.000  C
  C13      1.0000 0.15609  0.62352  0.22207  Biso   1.000  C
  C14      1.0000 0.20475  0.62081  0.27563  Biso   1.000  C
  C15      1.0000 0.22937  0.61788  0.30146  Biso   1.000  C
  C16      1.0000 0.20451  0.61524  0.35362  Biso   1.000  C
  C17      1.0000 0.16397  0.60130  0.38206  Biso   1.000  C
  C18      1.0000 0.14127  0.59881  0.42990  Biso   1.000  C
  C19      1.0000 0.15879  0.60873  0.45199  Biso   1.000  C
  C20      1.0000 0.20006  0.62119  0.42478  Biso   1.000  C
  C21      1.0000 0.22269  0.62493  0.37612  Biso   1.000  C
  C22      1.0000 0.13374  0.60602  0.50384  Biso   1.000  C
  C23      1.0000 0.98520  0.76170  0.05194  Biso   1.000  C
  C24      1.0000 0.96192  0.80927  0.02912  Biso   1.000  C
  C25      1.0000 0.13766  0.42894  0.20629  Biso   1.000  C
  C26      1.0000 0.16179  0.38216  0.22969  Biso   1.000  C
  C27      1.0000 0.26695  0.60028  0.90197  Biso   1.000  C
  C28      1.0000 0.19707  0.57550  0.96123  Biso   1.000  C
  C29      1.0000 0.23448  0.57728  0.91676  Biso   1.000  C
  C30      1.0000 0.26201  0.62151  0.93164  Biso   1.000  C
  C31      1.0000 0.22461  0.61973  0.97613  Biso   1.000  C
  C32      1.0000 0.05543  0.98789  0.56778  Biso   1.000  C
  C33      1.0000 0.03147  0.96421  0.56679  Biso   1.000  C
  C34      1.0000 0.91217  0.98265  0.56670  Biso   1.000  C
  C35      1.0000 0.83617  0.98419  0.56844  Biso   1.000  C
  C36      1.0000 0.80525  0.02084  0.58998  Biso   1.000  C
  C37      1.0000 0.75740  0.04490  0.59187  Biso   1.000  C
  C38      1.0000 0.81560  0.97324  0.54887  Biso   1.000  C
  C39      1.0000 0.76680  0.99669  0.55214  Biso   1.000  C
  C40      1.0000 0.73725  0.03085  0.57426  Biso   1.000  C
  C41      1.0000 0.68442  0.05529  0.57937  Biso   1.000  C
  C42      1.0000 0.88691  0.95935  0.56666  Biso   1.000  C
  C43      1.0000 0.19848  0.13279  0.62025  Biso   1.000  C
  C44      1.0000 0.22207  0.15609  0.62352  Biso   1.000  C
  C45      1.0000 0.27563  0.20475  0.62081  Biso   1.000  C
  C46      1.0000 0.30146  0.22937  0.61788  Biso   1.000  C
  C47      1.0000 0.35362  0.20451  0.61524  Biso   1.000  C
  C48      1.0000 0.38206  0.16397  0.60130  Biso   1.000  C
  C49      1.0000 0.42990  0.14127  0.59881  Biso   1.000  C
  C50      1.0000 0.45199  0.15879  0.60873  Biso   1.000  C
  C51      1.0000 0.42478  0.20006  0.62119  Biso   1.000  C
  C52      1.0000 0.37612  0.22269  0.62493  Biso   1.000  C
  C53      1.0000 0.50384  0.13374  0.60602  Biso   1.000  C
  C54      1.0000 0.05194  0.98520  0.76170  Biso   1.000  C
  C55      1.0000 0.02912  0.96192  0.80927  Biso   1.000  C
  C56      1.0000 0.20629  0.13766  0.42894  Biso   1.000  C
  C57      1.0000 0.22969  0.16179  0.38216  Biso   1.000  C
  C58      1.0000 0.90197  0.26695  0.60028  Biso   1.000  C
  C59      1.0000 0.96123  0.19707  0.57550  Biso   1.000  C
  C60      1.0000 0.91676  0.23448  0.57728  Biso   1.000  C
  C61      1.0000 0.93164  0.26201  0.62151  Biso   1.000  C
  C62      1.0000 0.97613  0.22461  0.61973  Biso   1.000  C
  C63      1.0000 0.56778  0.05543  0.98789  Biso   1.000  C
  C64      1.0000 0.56679  0.03147  0.96421  Biso   1.000  C
  C65      1.0000 0.56670  0.91217  0.98265  Biso   1.000  C
  C66      1.0000 0.56844  0.83617  0.98419  Biso   1.000  C
  C67      1.0000 0.58998  0.80525  0.02084  Biso   1.000  C
  C68      1.0000 0.59187  0.75740  0.04490  Biso   1.000  C
  C69      1.0000 0.54887  0.81560  0.97324  Biso   1.000  C
  C70      1.0000 0.55214  0.76680  0.99669  Biso   1.000  C
  C71      1.0000 0.57426  0.73725  0.03085  Biso   1.000  C
  C72      1.0000 0.57937  0.68442  0.05529  Biso   1.000  C
  C73      1.0000 0.56666  0.88691  0.95935  Biso   1.000  C
  C74      1.0000 0.62025  0.19848  0.13279  Biso   1.000  C
  C75      1.0000 0.62352  0.22207  0.15609  Biso   1.000  C
  C76      1.0000 0.62081  0.27563  0.20475  Biso   1.000  C
  C77      1.0000 0.61788  0.30146  0.22937  Biso   1.000  C
  C78      1.0000 0.61524  0.35362  0.20451  Biso   1.000  C
  C79      1.0000 0.60130  0.38206  0.16397  Biso   1.000  C
  C80      1.0000 0.59881  0.42990  0.14127  Biso   1.000  C
  C81      1.0000 0.60873  0.45199  0.15879  Biso   1.000  C
  C82      1.0000 0.62119  0.42478  0.20006  Biso   1.000  C
  C83      1.0000 0.62493  0.37612  0.22269  Biso   1.000  C
  C84      1.0000 0.60602  0.50384  0.13374  Biso   1.000  C
  C85      1.0000 0.76170  0.05194  0.98520  Biso   1.000  C
  C86      1.0000 0.80927  0.02912  0.96192  Biso   1.000  C
  C87      1.0000 0.42894  0.20629  0.13766  Biso   1.000  C
  C88      1.0000 0.38216  0.22969  0.16179  Biso   1.000  C
  C89      1.0000 0.60028  0.90197  0.26695  Biso   1.000  C
  C90      1.0000 0.57550  0.96123  0.19707  Biso   1.000  C
  C91      1.0000 0.57728  0.91676  0.23448  Biso   1.000  C
  C92      1.0000 0.62151  0.93164  0.26201  Biso   1.000  C
  C93      1.0000 0.61973  0.97613  0.22461  Biso   1.000  C
  C94      1.0000 0.56778  0.98789  0.05543  Biso   1.000  C
  C95      1.0000 0.56679  0.96421  0.03147  Biso   1.000  C
  C96      1.0000 0.56670  0.98265  0.91217  Biso   1.000  C
  C97      1.0000 0.56844  0.98419  0.83617  Biso   1.000  C
  C98      1.0000 0.58998  0.02084  0.80525  Biso   1.000  C
  C99      1.0000 0.59187  0.04490  0.75740  Biso   1.000  C
  C100     1.0000 0.54887  0.97324  0.81560  Biso   1.000  C
  C101     1.0000 0.55214  0.99669  0.76680  Biso   1.000  C
  C102     1.0000 0.57426  0.03085  0.73725  Biso   1.000  C
  C103     1.0000 0.57937  0.05529  0.68442  Biso   1.000  C
  C104     1.0000 0.56666  0.95935  0.88691  Biso   1.000  C
  C105     1.0000 0.62025  0.13279  0.19848  Biso   1.000  C
  C106     1.0000 0.62352  0.15609  0.22207  Biso   1.000  C
  C107     1.0000 0.62081  0.20475  0.27563  Biso   1.000  C
  C108     1.0000 0.61788  0.22937  0.30146  Biso   1.000  C
  C109     1.0000 0.61524  0.20451  0.35362  Biso   1.000  C
  C110     1.0000 0.60130  0.16397  0.38206  Biso   1.000  C
  C111     1.0000 0.59881  0.14127  0.42990  Biso   1.000  C
  C112     1.0000 0.60873  0.15879  0.45199  Biso   1.000  C
  C113     1.0000 0.62119  0.20006  0.42478  Biso   1.000  C
  C114     1.0000 0.62493  0.22269  0.37612  Biso   1.000  C
  C115     1.0000 0.60602  0.13374  0.50384  Biso   1.000  C
  C116     1.0000 0.76170  0.98520  0.05194  Biso   1.000  C
  C117     1.0000 0.80927  0.96192  0.02912  Biso   1.000  C
  C118     1.0000 0.42894  0.13766  0.20629  Biso   1.000  C
  C119     1.0000 0.38216  0.16179  0.22969  Biso   1.000  C
  C120     1.0000 0.60028  0.26695  0.90197  Biso   1.000  C
  C121     1.0000 0.57550  0.19707  0.96123  Biso   1.000  C
  C122     1.0000 0.57728  0.23448  0.91676  Biso   1.000  C
  C123     1.0000 0.62151  0.26201  0.93164  Biso   1.000  C
  C124     1.0000 0.61973  0.22461  0.97613  Biso   1.000  C
  C125     1.0000 0.98789  0.05543  0.56778  Biso   1.000  C
  C126     1.0000 0.96421  0.03147  0.56679  Biso   1.000  C
  C127     1.0000 0.98265  0.91217  0.56670  Biso   1.000  C
  C128     1.0000 0.98419  0.83617  0.56844  Biso   1.000  C
  C129     1.0000 0.02084  0.80525  0.58998  Biso   1.000  C
  C130     1.0000 0.04490  0.75740  0.59187  Biso   1.000  C
  C131     1.0000 0.97324  0.81560  0.54887  Biso   1.000  C
  C132     1.0000 0.99669  0.76680  0.55214  Biso   1.000  C
  C133     1.0000 0.03085  0.73725  0.57426  Biso   1.000  C
  C134     1.0000 0.05529  0.68442  0.57937  Biso   1.000  C
  C135     1.0000 0.95935  0.88691  0.56666  Biso   1.000  C
  C136     1.0000 0.13279  0.19848  0.62025  Biso   1.000  C
  C137     1.0000 0.15609  0.22207  0.62352  Biso   1.000  C
  C138     1.0000 0.20475  0.27563  0.62081  Biso   1.000  C
  C139     1.0000 0.22937  0.30146  0.61788  Biso   1.000  C
  C140     1.0000 0.20451  0.35362  0.61524  Biso   1.000  C
  C141     1.0000 0.16397  0.38206  0.60130  Biso   1.000  C
  C142     1.0000 0.14127  0.42990  0.59881  Biso   1.000  C
  C143     1.0000 0.15879  0.45199  0.60873  Biso   1.000  C
  C144     1.0000 0.20006  0.42478  0.62119  Biso   1.000  C
  C145     1.0000 0.22269  0.37612  0.62493  Biso   1.000  C
  C146     1.0000 0.13374  0.50384  0.60602  Biso   1.000  C
  C147     1.0000 0.98520  0.05194  0.76170  Biso   1.000  C
  C148     1.0000 0.96192  0.02912  0.80927  Biso   1.000  C
  C149     1.0000 0.13766  0.20629  0.42894  Biso   1.000  C
  C150     1.0000 0.16179  0.22969  0.38216  Biso   1.000  C
  C151     1.0000 0.26695  0.90197  0.60028  Biso   1.000  C
  C152     1.0000 0.19707  0.96123  0.57550  Biso   1.000  C
  C153     1.0000 0.23448  0.91676  0.57728  Biso   1.000  C
  C154     1.0000 0.26201  0.93164  0.62151  Biso   1.000  C
  C155     1.0000 0.22461  0.97613  0.61973  Biso   1.000  C
  C156     1.0000 0.05543  0.56778  0.98789  Biso   1.000  C
  C157     1.0000 0.03147  0.56679  0.96421  Biso   1.000  C
  C158     1.0000 0.91217  0.56670  0.98265  Biso   1.000  C
  C159     1.0000 0.83617  0.56844  0.98419  Biso   1.000  C
  C160     1.0000 0.80525  0.58998  0.02084  Biso   1.000  C
  C161     1.0000 0.75740  0.59187  0.04490  Biso   1.000  C
  C162     1.0000 0.81560  0.54887  0.97324  Biso   1.000  C
  C163     1.0000 0.76680  0.55214  0.99669  Biso   1.000  C
  C164     1.0000 0.73725  0.57426  0.03085  Biso   1.000  C
  C165     1.0000 0.68442  0.57937  0.05529  Biso   1.000  C
  C166     1.0000 0.88691  0.56666  0.95935  Biso   1.000  C
  C167     1.0000 0.19848  0.62025  0.13279  Biso   1.000  C
  C168     1.0000 0.22207  0.62352  0.15609  Biso   1.000  C
  C169     1.0000 0.27563  0.62081  0.20475  Biso   1.000  C
  C170     1.0000 0.30146  0.61788  0.22937  Biso   1.000  C
  C171     1.0000 0.35362  0.61524  0.20451  Biso   1.000  C
  C172     1.0000 0.38206  0.60130  0.16397  Biso   1.000  C
  C173     1.0000 0.42990  0.59881  0.14127  Biso   1.000  C
  C174     1.0000 0.45199  0.60873  0.15879  Biso   1.000  C
  C175     1.0000 0.42478  0.62119  0.20006  Biso   1.000  C
  C176     1.0000 0.37612  0.62493  0.22269  Biso   1.000  C
  C177     1.0000 0.50384  0.60602  0.13374  Biso   1.000  C
  C178     1.0000 0.05194  0.76170  0.98520  Biso   1.000  C
  C179     1.0000 0.02912  0.80927  0.96192  Biso   1.000  C
  C180     1.0000 0.20629  0.42894  0.13766  Biso   1.000  C
  C181     1.0000 0.22969  0.38216  0.16179  Biso   1.000  C
  C182     1.0000 0.90197  0.60028  0.26695  Biso   1.000  C
  C183     1.0000 0.96123  0.57550  0.19707  Biso   1.000  C
  C184     1.0000 0.91676  0.57728  0.23448  Biso   1.000  C
  C185     1.0000 0.93164  0.62151  0.26201  Biso   1.000  C
  C186     1.0000 0.97613  0.61973  0.22461  Biso   1.000  C
  C187     1.0000 0.99465  0.56936  0.56936  Biso   1.000  C
  C188     1.0000 0.94445  0.57287  0.57286  Biso   1.000  C
  C189     1.0000 0.91385  0.58996  0.58996  Biso   1.000  C
  C190     1.0000 0.90487  0.61691  0.61691  Biso   1.000  C
  C191     1.0000 0.94995  0.61556  0.61556  Biso   1.000  C
  C192     1.0000 0.56936  0.99465  0.56936  Biso   1.000  C
  C193     1.0000 0.57286  0.94445  0.57286  Biso   1.000  C
  C194     1.0000 0.58996  0.91385  0.58996  Biso   1.000  C
  C195     1.0000 0.61691  0.90487  0.61691  Biso   1.000  C
  C196     1.0000 0.61556  0.94995  0.61556  Biso   1.000  C
  C197     1.0000 0.56936  0.56936  0.99465  Biso   1.000  C
  C198     1.0000 0.57287  0.57286  0.94445  Biso   1.000  C
  C199     1.0000 0.58996  0.58996  0.91385  Biso   1.000  C
  C200     1.0000 0.61691  0.61691  0.90487  Biso   1.000  C
  C201     1.0000 0.61556  0.61556  0.94995  Biso   1.000  C
  C202     1.0000 0.05666  0.57650  0.05666  Biso   1.000  C
  C203     1.0000 0.03243  0.57189  0.03243  Biso   1.000  C
  C204     1.0000 0.98539  0.56721  0.98539  Biso   1.000  C
  C205     1.0000 0.95981  0.56614  0.95981  Biso   1.000  C
  C206     1.0000 0.91139  0.56665  0.91139  Biso   1.000  C
  C207     1.0000 0.05441  0.68411  0.05441  Biso   1.000  C
  C208     1.0000 0.02997  0.73674  0.02997  Biso   1.000  C
  C209     1.0000 0.98340  0.83432  0.98340  Biso   1.000  C
  C210     1.0000 0.95821  0.88632  0.95821  Biso   1.000  C
  C211     1.0000 0.13415  0.50498  0.13415  Biso   1.000  C
  C212     1.0000 0.15945  0.45354  0.15945  Biso   1.000  C
  C213     1.0000 0.20789  0.35705  0.20789  Biso   1.000  C
  C214     1.0000 0.23370  0.30635  0.23370  Biso   1.000  C
  C215     1.0000 0.05666  0.05666  0.57650  Biso   1.000  C
  C216     1.0000 0.03243  0.03243  0.57189  Biso   1.000  C
  C217     1.0000 0.98539  0.98539  0.56721  Biso   1.000  C
  C218     1.0000 0.95981  0.95981  0.56614  Biso   1.000  C
  C219     1.0000 0.91139  0.91139  0.56665  Biso   1.000  C
  C220     1.0000 0.05441  0.05441  0.68411  Biso   1.000  C
  C221     1.0000 0.02997  0.02997  0.73674  Biso   1.000  C
  C222     1.0000 0.98340  0.98340  0.83432  Biso   1.000  C
  C223     1.0000 0.95821  0.95821  0.88632  Biso   1.000  C
  C224     1.0000 0.13415  0.13415  0.50498  Biso   1.000  C
  C225     1.0000 0.15945  0.15945  0.45354  Biso   1.000  C
  C226     1.0000 0.20789  0.20789  0.35705  Biso   1.000  C
  C227     1.0000 0.23370  0.23370  0.30635  Biso   1.000  C
  C228     1.0000 0.57650  0.05666  0.05666  Biso   1.000  C
  C229     1.0000 0.57189  0.03243  0.03243  Biso   1.000  C
  C230     1.0000 0.56721  0.98539  0.98539  Biso   1.000  C
  C231     1.0000 0.56614  0.95981  0.95981  Biso   1.000  C
  C232     1.0000 0.56665  0.91139  0.91139  Biso   1.000  C
  C233     1.0000 0.68411  0.05441  0.05441  Biso   1.000  C
  C234     1.0000 0.73674  0.02997  0.02997  Biso   1.000  C
  C235     1.0000 0.83432  0.98340  0.98340  Biso   1.000  C
  C236     1.0000 0.88632  0.95821  0.95821  Biso   1.000  C
  C237     1.0000 0.50498  0.13415  0.13415  Biso   1.000  C
  C238     1.0000 0.45354  0.15945  0.15945  Biso   1.000  C
  C239     1.0000 0.35705  0.20789  0.20789  Biso   1.000  C
  C240     1.0000 0.30635  0.23370  0.23370  Biso   1.000  C
  C241     1.0000 0.13060  0.61214  0.13060  Biso   1.000  C
  C242     1.0000 0.15472  0.61766  0.15472  Biso   1.000  C
  C243     1.0000 0.20170  0.62264  0.20170  Biso   1.000  C
  C244     1.0000 0.22759  0.62216  0.22759  Biso   1.000  C
  C245     1.0000 0.27750  0.61612  0.27750  Biso   1.000  C
  C246     1.0000 0.13060  0.13060  0.61214  Biso   1.000  C
  C247     1.0000 0.15472  0.15472  0.61766  Biso   1.000  C
  C248     1.0000 0.20170  0.20170  0.62264  Biso   1.000  C
  C249     1.0000 0.22759  0.22759  0.62216  Biso   1.000  C
  C250     1.0000 0.27750  0.27750  0.61612  Biso   1.000  C
  C251     1.0000 0.61214  0.13060  0.13060  Biso   1.000  C
  C252     1.0000 0.61766  0.15472  0.15472  Biso   1.000  C
  C253     1.0000 0.62264  0.20170  0.20170  Biso   1.000  C
  C254     1.0000 0.62216  0.22759  0.22759  Biso   1.000  C
  C255     1.0000 0.61612  0.27750  0.27750  Biso   1.000  C
  C256     1.0000 0.91087  0.91087  0.98127  Biso   1.000  C
  C257     1.0000 0.98127  0.91087  0.91087  Biso   1.000  C
  C258     1.0000 0.91087  0.98127  0.91087  Biso   1.000  C
  C259     1.0000 0.28151  0.28151  0.21026  Biso   1.000  C
  C260     1.0000 0.21026  0.28151  0.28151  Biso   1.000  C
  C261     1.0000 0.28151  0.21026  0.28151  Biso   1.000  C
  N1       1.0000 0.19453  0.59529  0.98985  Biso   1.000  N
  N2       1.0000 0.98985  0.19453  0.59529  Biso   1.000  N
  N3       1.0000 0.59529  0.98985  0.19453  Biso   1.000  N
  N4       1.0000 0.59529  0.19453  0.98985  Biso   1.000  N
  N5       1.0000 0.19453  0.98985  0.59529  Biso   1.000  N
  N6       1.0000 0.98985  0.59529  0.19453  Biso   1.000  N
  N7       1.0000 0.99185  0.59296  0.59296  Biso   1.000  N
  N8       1.0000 0.59296  0.99185  0.59296  Biso   1.000  N
  N9       1.0000 0.59296  0.59296  0.99185  Biso   1.000  N
  O1       1.0000 0.09912  0.57879  0.03267  Biso   1.000  O
  O2       1.0000 0.03227  0.58079  0.66333  Biso   1.000  O
  O3       1.0000 0.09714  0.58328  0.66458  Biso   1.000  O
  O4       1.0000 0.15488  0.60941  0.08874  Biso   1.000  O
  O5       1.0000 0.15716  0.60621  0.52436  Biso   1.000  O
  O6       1.0000 0.09220  0.60377  0.52321  Biso   1.000  O
  O7       1.0000 0.09646  0.66381  0.03038  Biso   1.000  O
  O8       1.0000 0.15773  0.52501  0.09147  Biso   1.000  O
  O9       1.0000 0.03267  0.09912  0.57879  Biso   1.000  O
  O10      1.0000 0.66333  0.03227  0.58079  Biso   1.000  O
  O11      1.0000 0.66458  0.09714  0.58328  Biso   1.000  O
  O12      1.0000 0.08874  0.15488  0.60941  Biso   1.000  O
  O13      1.0000 0.52436  0.15716  0.60621  Biso   1.000  O
  O14      1.0000 0.52321  0.09220  0.60377  Biso   1.000  O
  O15      1.0000 0.03038  0.09646  0.66381  Biso   1.000  O
  O16      1.0000 0.09147  0.15773  0.52501  Biso   1.000  O
  O17      1.0000 0.57879  0.03267  0.09912  Biso   1.000  O
  O18      1.0000 0.58079  0.66333  0.03227  Biso   1.000  O
  O19      1.0000 0.58328  0.66458  0.09714  Biso   1.000  O
  O20      1.0000 0.60941  0.08874  0.15488  Biso   1.000  O
  O21      1.0000 0.60621  0.52436  0.15716  Biso   1.000  O
  O22      1.0000 0.60377  0.52321  0.09220  Biso   1.000  O
  O23      1.0000 0.66381  0.03038  0.09646  Biso   1.000  O
  O24      1.0000 0.52501  0.09147  0.15773  Biso   1.000  O
  O25      1.0000 0.57879  0.09912  0.03267  Biso   1.000  O
  O26      1.0000 0.58079  0.03227  0.66333  Biso   1.000  O
  O27      1.0000 0.58328  0.09714  0.66458  Biso   1.000  O
  O28      1.0000 0.60941  0.15488  0.08874  Biso   1.000  O
  O29      1.0000 0.60621  0.15716  0.52436  Biso   1.000  O
  O30      1.0000 0.60377  0.09220  0.52321  Biso   1.000  O
  O31      1.0000 0.66381  0.09646  0.03038  Biso   1.000  O
  O32      1.0000 0.52501  0.15773  0.09147  Biso   1.000  O
  O33      1.0000 0.09912  0.03267  0.57879  Biso   1.000  O
  O34      1.0000 0.03227  0.66333  0.58079  Biso   1.000  O
  O35      1.0000 0.09714  0.66458  0.58328  Biso   1.000  O
  O36      1.0000 0.15488  0.08874  0.60941  Biso   1.000  O
  O37      1.0000 0.15716  0.52436  0.60621  Biso   1.000  O
  O38      1.0000 0.09220  0.52321  0.60377  Biso   1.000  O
  O39      1.0000 0.09646  0.03038  0.66381  Biso   1.000  O
  O40      1.0000 0.15773  0.09147  0.52501  Biso   1.000  O
  O41      1.0000 0.03267  0.57879  0.09912  Biso   1.000  O
  O42      1.0000 0.66333  0.58079  0.03227  Biso   1.000  O
  O43      1.0000 0.66458  0.58328  0.09714  Biso   1.000  O
  O44      1.0000 0.08874  0.60941  0.15488  Biso   1.000  O
  O45      1.0000 0.52436  0.60621  0.15716  Biso   1.000  O
  O46      1.0000 0.52321  0.60377  0.09220  Biso   1.000  O
  O47      1.0000 0.03038  0.66381  0.09646  Biso   1.000  O
  O48      1.0000 0.09147  0.52501  0.15773  Biso   1.000  O
  O49      1.0000 0.19594  0.59617  0.59617  Biso   1.000  O
  O50      1.0000 0.59617  0.19594  0.59617  Biso   1.000  O
  O51      1.0000 0.59617  0.59617  0.19594  Biso   1.000  O
  Cu13     1.0000 0.40577  0.86714  0.94538  Biso   1.000  Cu
  Cu14     1.0000 0.86714  0.94538  0.40577  Biso   1.000  Cu
  Cu15     1.0000 0.94538  0.40577  0.86714  Biso   1.000  Cu
  Cu16     1.0000 0.86714  0.40577  0.94538  Biso   1.000  Cu
  Cu17     1.0000 0.94538  0.86714  0.40577  Biso   1.000  Cu
  Cu18     1.0000 0.40577  0.94538  0.86714  Biso   1.000  Cu
  Cu19     1.0000 0.40690  0.94447  0.40690  Biso   1.000  Cu
  Cu20     1.0000 0.40533  0.86700  0.40533  Biso   1.000  Cu
  Cu21     1.0000 0.94447  0.40690  0.40690  Biso   1.000  Cu
  Cu22     1.0000 0.86700  0.40533  0.40533  Biso   1.000  Cu
  Cu23     1.0000 0.40690  0.40690  0.94447  Biso   1.000  Cu
  Cu24     1.0000 0.40533  0.40533  0.86700  Biso   1.000  Cu
  H166     1.0000 0.43450  0.02750  0.91190  Biso   1.000  H
  H167     1.0000 0.43430  0.06750  0.95190  Biso   1.000  H
  H168     1.0000 0.43290  0.98550  0.10370  Biso   1.000  H
  H169     1.0000 0.39660  0.97090  0.18250  Biso   1.000  H
  H170     1.0000 0.39530  0.92970  0.26160  Biso   1.000  H
  H171     1.0000 0.46650  0.05010  0.16510  Biso   1.000  H
  H172     1.0000 0.46120  0.01130  0.24580  Biso   1.000  H
  H173     1.0000 0.38010  0.89910  0.78530  Biso   1.000  H
  H174     1.0000 0.37360  0.86140  0.74700  Biso   1.000  H
  H175     1.0000 0.37830  0.82760  0.70890  Biso   1.000  H
  H176     1.0000 0.40680  0.84860  0.63150  Biso   1.000  H
  H177     1.0000 0.41000  0.88680  0.55230  Biso   1.000  H
  H178     1.0000 0.37280  0.78680  0.56080  Biso   1.000  H
  H179     1.0000 0.36600  0.74960  0.64170  Biso   1.000  H
  H180     1.0000 0.25380  0.03100  0.91600  Biso   1.000  H
  H181     1.0000 0.17540  0.06980  0.95410  Biso   1.000  H
  H182     1.0000 0.55590  0.89430  0.77730  Biso   1.000  H
  H183     1.0000 0.63310  0.85420  0.73810  Biso   1.000  H
  H184     1.0000 0.39860  0.70800  0.12780  Biso   1.000  H
  H185     1.0000 0.43890  0.82550  0.02880  Biso   1.000  H
  H186     1.0000 0.43690  0.76220  0.10310  Biso   1.000  H
  H187     1.0000 0.36320  0.71620  0.07820  Biso   1.000  H
  H188     1.0000 0.36540  0.77980  0.00400  Biso   1.000  H
  H189     1.0000 0.02750  0.91190  0.43450  Biso   1.000  H
  H190     1.0000 0.06750  0.95190  0.43430  Biso   1.000  H
  H191     1.0000 0.98550  0.10370  0.43290  Biso   1.000  H
  H192     1.0000 0.97090  0.18250  0.39660  Biso   1.000  H
  H193     1.0000 0.92970  0.26160  0.39530  Biso   1.000  H
  H194     1.0000 0.05010  0.16510  0.46650  Biso   1.000  H
  H195     1.0000 0.01130  0.24580  0.46120  Biso   1.000  H
  H196     1.0000 0.89910  0.78530  0.38010  Biso   1.000  H
  H197     1.0000 0.86140  0.74700  0.37360  Biso   1.000  H
  H198     1.0000 0.82760  0.70890  0.37830  Biso   1.000  H
  H199     1.0000 0.84860  0.63150  0.40680  Biso   1.000  H
  H200     1.0000 0.88680  0.55230  0.41000  Biso   1.000  H
  H201     1.0000 0.78680  0.56080  0.37280  Biso   1.000  H
  H202     1.0000 0.74960  0.64170  0.36600  Biso   1.000  H
  H203     1.0000 0.03100  0.91600  0.25380  Biso   1.000  H
  H204     1.0000 0.06980  0.95410  0.17540  Biso   1.000  H
  H205     1.0000 0.89430  0.77730  0.55590  Biso   1.000  H
  H206     1.0000 0.85420  0.73810  0.63310  Biso   1.000  H
  H207     1.0000 0.70800  0.12780  0.39860  Biso   1.000  H
  H208     1.0000 0.82550  0.02880  0.43890  Biso   1.000  H
  H209     1.0000 0.76220  0.10310  0.43690  Biso   1.000  H
  H210     1.0000 0.71620  0.07820  0.36320  Biso   1.000  H
  H211     1.0000 0.77980  0.00400  0.36540  Biso   1.000  H
  H212     1.0000 0.91190  0.43450  0.02750  Biso   1.000  H
  H213     1.0000 0.95190  0.43430  0.06750  Biso   1.000  H
  H214     1.0000 0.10370  0.43290  0.98550  Biso   1.000  H
  H215     1.0000 0.18250  0.39660  0.97090  Biso   1.000  H
  H216     1.0000 0.26160  0.39530  0.92970  Biso   1.000  H
  H217     1.0000 0.16510  0.46650  0.05010  Biso   1.000  H
  H218     1.0000 0.24580  0.46120  0.01130  Biso   1.000  H
  H219     1.0000 0.78530  0.38010  0.89910  Biso   1.000  H
  H220     1.0000 0.74700  0.37360  0.86140  Biso   1.000  H
  H221     1.0000 0.70890  0.37830  0.82760  Biso   1.000  H
  H222     1.0000 0.63150  0.40680  0.84860  Biso   1.000  H
  H223     1.0000 0.55230  0.41000  0.88680  Biso   1.000  H
  H224     1.0000 0.56080  0.37280  0.78680  Biso   1.000  H
  H225     1.0000 0.64170  0.36600  0.74960  Biso   1.000  H
  H226     1.0000 0.91600  0.25380  0.03100  Biso   1.000  H
  H227     1.0000 0.95410  0.17540  0.06980  Biso   1.000  H
  H228     1.0000 0.77730  0.55590  0.89430  Biso   1.000  H
  H229     1.0000 0.73810  0.63310  0.85420  Biso   1.000  H
  H230     1.0000 0.12780  0.39860  0.70800  Biso   1.000  H
  H231     1.0000 0.02880  0.43890  0.82550  Biso   1.000  H
  H232     1.0000 0.10310  0.43690  0.76220  Biso   1.000  H
  H233     1.0000 0.07820  0.36320  0.71620  Biso   1.000  H
  H234     1.0000 0.00400  0.36540  0.77980  Biso   1.000  H
  H235     1.0000 0.02750  0.43450  0.91190  Biso   1.000  H
  H236     1.0000 0.06750  0.43430  0.95190  Biso   1.000  H
  H237     1.0000 0.98550  0.43290  0.10370  Biso   1.000  H
  H238     1.0000 0.97090  0.39660  0.18250  Biso   1.000  H
  H239     1.0000 0.92970  0.39530  0.26160  Biso   1.000  H
  H240     1.0000 0.05010  0.46650  0.16510  Biso   1.000  H
  H241     1.0000 0.01130  0.46120  0.24580  Biso   1.000  H
  H242     1.0000 0.89910  0.38010  0.78530  Biso   1.000  H
  H243     1.0000 0.86140  0.37360  0.74700  Biso   1.000  H
  H244     1.0000 0.82760  0.37830  0.70890  Biso   1.000  H
  H245     1.0000 0.84860  0.40680  0.63150  Biso   1.000  H
  H246     1.0000 0.88680  0.41000  0.55230  Biso   1.000  H
  H247     1.0000 0.78680  0.37280  0.56080  Biso   1.000  H
  H248     1.0000 0.74960  0.36600  0.64170  Biso   1.000  H
  H249     1.0000 0.03100  0.25380  0.91600  Biso   1.000  H
  H250     1.0000 0.06980  0.17540  0.95410  Biso   1.000  H
  H251     1.0000 0.89430  0.55590  0.77730  Biso   1.000  H
  H252     1.0000 0.85420  0.63310  0.73810  Biso   1.000  H
  H253     1.0000 0.70800  0.39860  0.12780  Biso   1.000  H
  H254     1.0000 0.82550  0.43890  0.02880  Biso   1.000  H
  H255     1.0000 0.76220  0.43690  0.10310  Biso   1.000  H
  H256     1.0000 0.71620  0.36320  0.07820  Biso   1.000  H
  H257     1.0000 0.77980  0.36540  0.00400  Biso   1.000  H
  H258     1.0000 0.91190  0.02750  0.43450  Biso   1.000  H
  H259     1.0000 0.95190  0.06750  0.43430  Biso   1.000  H
  H260     1.0000 0.10370  0.98550  0.43290  Biso   1.000  H
  H261     1.0000 0.18250  0.97090  0.39660  Biso   1.000  H
  H262     1.0000 0.26160  0.92970  0.39530  Biso   1.000  H
  H263     1.0000 0.16510  0.05010  0.46650  Biso   1.000  H
  H264     1.0000 0.24580  0.01130  0.46120  Biso   1.000  H
  H265     1.0000 0.78530  0.89910  0.38010  Biso   1.000  H
  H266     1.0000 0.74700  0.86140  0.37360  Biso   1.000  H
  H267     1.0000 0.70890  0.82760  0.37830  Biso   1.000  H
  H268     1.0000 0.63150  0.84860  0.40680  Biso   1.000  H
  H269     1.0000 0.55230  0.88680  0.41000  Biso   1.000  H
  H270     1.0000 0.56080  0.78680  0.37280  Biso   1.000  H
  H271     1.0000 0.64170  0.74960  0.36600  Biso   1.000  H
  H272     1.0000 0.91600  0.03100  0.25380  Biso   1.000  H
  H273     1.0000 0.95410  0.06980  0.17540  Biso   1.000  H
  H274     1.0000 0.77730  0.89430  0.55590  Biso   1.000  H
  H275     1.0000 0.73810  0.85420  0.63310  Biso   1.000  H
  H276     1.0000 0.12780  0.70800  0.39860  Biso   1.000  H
  H277     1.0000 0.02880  0.82550  0.43890  Biso   1.000  H
  H278     1.0000 0.10310  0.76220  0.43690  Biso   1.000  H
  H279     1.0000 0.07820  0.71620  0.36320  Biso   1.000  H
  H280     1.0000 0.00400  0.77980  0.36540  Biso   1.000  H
  H281     1.0000 0.43450  0.91190  0.02750  Biso   1.000  H
  H282     1.0000 0.43430  0.95190  0.06750  Biso   1.000  H
  H283     1.0000 0.43290  0.10370  0.98550  Biso   1.000  H
  H284     1.0000 0.39660  0.18250  0.97090  Biso   1.000  H
  H285     1.0000 0.39530  0.26160  0.92970  Biso   1.000  H
  H286     1.0000 0.46650  0.16510  0.05010  Biso   1.000  H
  H287     1.0000 0.46120  0.24580  0.01130  Biso   1.000  H
  H288     1.0000 0.38010  0.78530  0.89910  Biso   1.000  H
  H289     1.0000 0.37360  0.74700  0.86140  Biso   1.000  H
  H290     1.0000 0.37830  0.70890  0.82760  Biso   1.000  H
  H291     1.0000 0.40680  0.63150  0.84860  Biso   1.000  H
  H292     1.0000 0.41000  0.55230  0.88680  Biso   1.000  H
  H293     1.0000 0.37280  0.56080  0.78680  Biso   1.000  H
  H294     1.0000 0.36600  0.64170  0.74960  Biso   1.000  H
  H295     1.0000 0.25380  0.91600  0.03100  Biso   1.000  H
  H296     1.0000 0.17540  0.95410  0.06980  Biso   1.000  H
  H297     1.0000 0.55590  0.77730  0.89430  Biso   1.000  H
  H298     1.0000 0.63310  0.73810  0.85420  Biso   1.000  H
  H299     1.0000 0.39860  0.12780  0.70800  Biso   1.000  H
  H300     1.0000 0.43890  0.02880  0.82550  Biso   1.000  H
  H301     1.0000 0.43690  0.10310  0.76220  Biso   1.000  H
  H302     1.0000 0.36320  0.07820  0.71620  Biso   1.000  H
  H303     1.0000 0.36540  0.00400  0.77980  Biso   1.000  H
  H304     1.0000 0.44825  0.97570  0.44825  Biso   1.000  H
  H305     1.0000 0.44360  0.05460  0.44360  Biso   1.000  H
  H306     1.0000 0.41090  0.11310  0.41090  Biso   1.000  H
  H307     1.0000 0.36630  0.12610  0.36630  Biso   1.000  H
  H308     1.0000 0.36755  0.05250  0.36755  Biso   1.000  H
  H309     1.0000 0.97570  0.44825  0.44825  Biso   1.000  H
  H310     1.0000 0.05460  0.44360  0.44360  Biso   1.000  H
  H311     1.0000 0.11310  0.41090  0.41090  Biso   1.000  H
  H312     1.0000 0.12610  0.36630  0.36630  Biso   1.000  H
  H313     1.0000 0.05250  0.36755  0.36755  Biso   1.000  H
  H314     1.0000 0.44825  0.44825  0.97570  Biso   1.000  H
  H315     1.0000 0.44360  0.44360  0.05460  Biso   1.000  H
  H316     1.0000 0.41090  0.41090  0.11310  Biso   1.000  H
  H317     1.0000 0.36630  0.36630  0.12610  Biso   1.000  H
  H318     1.0000 0.36755  0.36755  0.05250  Biso   1.000  H
  H319     1.0000 0.43330  0.10470  0.10470  Biso   1.000  H
  H320     1.0000 0.10470  0.10470  0.43330  Biso   1.000  H
  H321     1.0000 0.10470  0.43330  0.10470  Biso   1.000  H
  H322     1.0000 0.38640  0.70570  0.70570  Biso   1.000  H
  H323     1.0000 0.70570  0.70570  0.38640  Biso   1.000  H
  H324     1.0000 0.70570  0.38640  0.70570  Biso   1.000  H
  H325     1.0000 0.10495  0.10495  0.98670  Biso   1.000  H
  H326     1.0000 0.10495  0.98670  0.10495  Biso   1.000  H
  H327     1.0000 0.98670  0.10495  0.10495  Biso   1.000  H
  H328     1.0000 0.70280  0.70280  0.82190  Biso   1.000  H
  H329     1.0000 0.70280  0.82190  0.70280  Biso   1.000  H
  H330     1.0000 0.82190  0.70280  0.70280  Biso   1.000  H
  C262     1.0000 0.43222  0.01211  0.94457  Biso   1.000  C
  C263     1.0000 0.43321  0.03579  0.96853  Biso   1.000  C
  C264     1.0000 0.43330  0.01735  0.08783  Biso   1.000  C
  C265     1.0000 0.43156  0.01581  0.16383  Biso   1.000  C
  C266     1.0000 0.41002  0.97916  0.19475  Biso   1.000  C
  C267     1.0000 0.40813  0.95510  0.24260  Biso   1.000  C
  C268     1.0000 0.45113  0.02676  0.18440  Biso   1.000  C
  C269     1.0000 0.44786  0.00331  0.23320  Biso   1.000  C
  C270     1.0000 0.42574  0.96915  0.26275  Biso   1.000  C
  C271     1.0000 0.42063  0.94471  0.31558  Biso   1.000  C
  C272     1.0000 0.43334  0.04065  0.11309  Biso   1.000  C
  C273     1.0000 0.37975  0.86721  0.80152  Biso   1.000  C
  C274     1.0000 0.37648  0.84391  0.77793  Biso   1.000  C
  C275     1.0000 0.37919  0.79525  0.72437  Biso   1.000  C
  C276     1.0000 0.38212  0.77063  0.69854  Biso   1.000  C
  C277     1.0000 0.38476  0.79549  0.64638  Biso   1.000  C
  C278     1.0000 0.39870  0.83603  0.61794  Biso   1.000  C
  C279     1.0000 0.40119  0.85873  0.57010  Biso   1.000  C
  C280     1.0000 0.39127  0.84121  0.54801  Biso   1.000  C
  C281     1.0000 0.37881  0.79994  0.57522  Biso   1.000  C
  C282     1.0000 0.37507  0.77731  0.62388  Biso   1.000  C
  C283     1.0000 0.39398  0.86626  0.49616  Biso   1.000  C
  C284     1.0000 0.23830  0.01480  0.94806  Biso   1.000  C
  C285     1.0000 0.19073  0.03808  0.97088  Biso   1.000  C
  C286     1.0000 0.57106  0.86234  0.79371  Biso   1.000  C
  C287     1.0000 0.61784  0.83821  0.77031  Biso   1.000  C
  C288     1.0000 0.39972  0.73305  0.09803  Biso   1.000  C
  C289     1.0000 0.42450  0.80293  0.03877  Biso   1.000  C
  C290     1.0000 0.42272  0.76552  0.08324  Biso   1.000  C
  C291     1.0000 0.37849  0.73799  0.06836  Biso   1.000  C
  C292     1.0000 0.38027  0.77539  0.02387  Biso   1.000  C
  C293     1.0000 0.01211  0.94457  0.43222  Biso   1.000  C
  C294     1.0000 0.03579  0.96853  0.43321  Biso   1.000  C
  C295     1.0000 0.01735  0.08783  0.43330  Biso   1.000  C
  C296     1.0000 0.01581  0.16383  0.43156  Biso   1.000  C
  C297     1.0000 0.97916  0.19475  0.41002  Biso   1.000  C
  C298     1.0000 0.95510  0.24260  0.40813  Biso   1.000  C
  C299     1.0000 0.02676  0.18440  0.45113  Biso   1.000  C
  C300     1.0000 0.00331  0.23320  0.44786  Biso   1.000  C
  C301     1.0000 0.96915  0.26275  0.42574  Biso   1.000  C
  C302     1.0000 0.94471  0.31558  0.42063  Biso   1.000  C
  C303     1.0000 0.04065  0.11309  0.43334  Biso   1.000  C
  C304     1.0000 0.86721  0.80152  0.37975  Biso   1.000  C
  C305     1.0000 0.84391  0.77793  0.37648  Biso   1.000  C
  C306     1.0000 0.79525  0.72437  0.37919  Biso   1.000  C
  C307     1.0000 0.77063  0.69854  0.38212  Biso   1.000  C
  C308     1.0000 0.79549  0.64638  0.38476  Biso   1.000  C
  C309     1.0000 0.83603  0.61794  0.39870  Biso   1.000  C
  C310     1.0000 0.85873  0.57010  0.40119  Biso   1.000  C
  C311     1.0000 0.84121  0.54801  0.39127  Biso   1.000  C
  C312     1.0000 0.79994  0.57522  0.37881  Biso   1.000  C
  C313     1.0000 0.77731  0.62388  0.37507  Biso   1.000  C
  C314     1.0000 0.86626  0.49616  0.39398  Biso   1.000  C
  C315     1.0000 0.01480  0.94806  0.23830  Biso   1.000  C
  C316     1.0000 0.03808  0.97088  0.19073  Biso   1.000  C
  C317     1.0000 0.86234  0.79371  0.57106  Biso   1.000  C
  C318     1.0000 0.83821  0.77031  0.61784  Biso   1.000  C
  C319     1.0000 0.73305  0.09803  0.39972  Biso   1.000  C
  C320     1.0000 0.80293  0.03877  0.42450  Biso   1.000  C
  C321     1.0000 0.76552  0.08324  0.42272  Biso   1.000  C
  C322     1.0000 0.73799  0.06836  0.37849  Biso   1.000  C
  C323     1.0000 0.77539  0.02387  0.38027  Biso   1.000  C
  C324     1.0000 0.94457  0.43222  0.01211  Biso   1.000  C
  C325     1.0000 0.96853  0.43321  0.03579  Biso   1.000  C
  C326     1.0000 0.08783  0.43330  0.01735  Biso   1.000  C
  C327     1.0000 0.16383  0.43156  0.01581  Biso   1.000  C
  C328     1.0000 0.19475  0.41002  0.97916  Biso   1.000  C
  C329     1.0000 0.24260  0.40813  0.95510  Biso   1.000  C
  C330     1.0000 0.18440  0.45113  0.02676  Biso   1.000  C
  C331     1.0000 0.23320  0.44786  0.00331  Biso   1.000  C
  C332     1.0000 0.26275  0.42574  0.96915  Biso   1.000  C
  C333     1.0000 0.31558  0.42063  0.94471  Biso   1.000  C
  C334     1.0000 0.11309  0.43334  0.04065  Biso   1.000  C
  C335     1.0000 0.80152  0.37975  0.86721  Biso   1.000  C
  C336     1.0000 0.77793  0.37648  0.84391  Biso   1.000  C
  C337     1.0000 0.72437  0.37919  0.79525  Biso   1.000  C
  C338     1.0000 0.69854  0.38212  0.77063  Biso   1.000  C
  C339     1.0000 0.64638  0.38476  0.79549  Biso   1.000  C
  C340     1.0000 0.61794  0.39870  0.83603  Biso   1.000  C
  C341     1.0000 0.57010  0.40119  0.85873  Biso   1.000  C
  C342     1.0000 0.54801  0.39127  0.84121  Biso   1.000  C
  C343     1.0000 0.57522  0.37881  0.79994  Biso   1.000  C
  C344     1.0000 0.62388  0.37507  0.77731  Biso   1.000  C
  C345     1.0000 0.49616  0.39398  0.86626  Biso   1.000  C
  C346     1.0000 0.94806  0.23830  0.01480  Biso   1.000  C
  C347     1.0000 0.97088  0.19073  0.03808  Biso   1.000  C
  C348     1.0000 0.79371  0.57106  0.86234  Biso   1.000  C
  C349     1.0000 0.77031  0.61784  0.83821  Biso   1.000  C
  C350     1.0000 0.09803  0.39972  0.73305  Biso   1.000  C
  C351     1.0000 0.03877  0.42450  0.80293  Biso   1.000  C
  C352     1.0000 0.08324  0.42272  0.76552  Biso   1.000  C
  C353     1.0000 0.06836  0.37849  0.73799  Biso   1.000  C
  C354     1.0000 0.02387  0.38027  0.77539  Biso   1.000  C
  C355     1.0000 0.01211  0.43222  0.94457  Biso   1.000  C
  C356     1.0000 0.03579  0.43321  0.96853  Biso   1.000  C
  C357     1.0000 0.01735  0.43330  0.08783  Biso   1.000  C
  C358     1.0000 0.01581  0.43156  0.16383  Biso   1.000  C
  C359     1.0000 0.97916  0.41002  0.19475  Biso   1.000  C
  C360     1.0000 0.95510  0.40813  0.24260  Biso   1.000  C
  C361     1.0000 0.02676  0.45113  0.18440  Biso   1.000  C
  C362     1.0000 0.00331  0.44786  0.23320  Biso   1.000  C
  C363     1.0000 0.96915  0.42574  0.26275  Biso   1.000  C
  C364     1.0000 0.94471  0.42063  0.31558  Biso   1.000  C
  C365     1.0000 0.04065  0.43334  0.11309  Biso   1.000  C
  C366     1.0000 0.86721  0.37975  0.80152  Biso   1.000  C
  C367     1.0000 0.84391  0.37648  0.77793  Biso   1.000  C
  C368     1.0000 0.79525  0.37919  0.72437  Biso   1.000  C
  C369     1.0000 0.77063  0.38212  0.69854  Biso   1.000  C
  C370     1.0000 0.79549  0.38476  0.64638  Biso   1.000  C
  C371     1.0000 0.83603  0.39870  0.61794  Biso   1.000  C
  C372     1.0000 0.85873  0.40119  0.57010  Biso   1.000  C
  C373     1.0000 0.84121  0.39127  0.54801  Biso   1.000  C
  C374     1.0000 0.79994  0.37881  0.57522  Biso   1.000  C
  C375     1.0000 0.77731  0.37507  0.62388  Biso   1.000  C
  C376     1.0000 0.86626  0.39398  0.49616  Biso   1.000  C
  C377     1.0000 0.01480  0.23830  0.94806  Biso   1.000  C
  C378     1.0000 0.03808  0.19073  0.97088  Biso   1.000  C
  C379     1.0000 0.86234  0.57106  0.79371  Biso   1.000  C
  C380     1.0000 0.83821  0.61784  0.77031  Biso   1.000  C
  C381     1.0000 0.73305  0.39972  0.09803  Biso   1.000  C
  C382     1.0000 0.80293  0.42450  0.03877  Biso   1.000  C
  C383     1.0000 0.76552  0.42272  0.08324  Biso   1.000  C
  C384     1.0000 0.73799  0.37849  0.06836  Biso   1.000  C
  C385     1.0000 0.77539  0.38027  0.02387  Biso   1.000  C
  C386     1.0000 0.94457  0.01211  0.43222  Biso   1.000  C
  C387     1.0000 0.96853  0.03579  0.43321  Biso   1.000  C
  C388     1.0000 0.08783  0.01735  0.43330  Biso   1.000  C
  C389     1.0000 0.16383  0.01581  0.43156  Biso   1.000  C
  C390     1.0000 0.19475  0.97916  0.41002  Biso   1.000  C
  C391     1.0000 0.24260  0.95510  0.40813  Biso   1.000  C
  C392     1.0000 0.18440  0.02676  0.45113  Biso   1.000  C
  C393     1.0000 0.23320  0.00331  0.44786  Biso   1.000  C
  C394     1.0000 0.26275  0.96915  0.42574  Biso   1.000  C
  C395     1.0000 0.31558  0.94471  0.42063  Biso   1.000  C
  C396     1.0000 0.11309  0.04065  0.43334  Biso   1.000  C
  C397     1.0000 0.80152  0.86721  0.37975  Biso   1.000  C
  C398     1.0000 0.77793  0.84391  0.37648  Biso   1.000  C
  C399     1.0000 0.72437  0.79525  0.37919  Biso   1.000  C
  C400     1.0000 0.69854  0.77063  0.38212  Biso   1.000  C
  C401     1.0000 0.64638  0.79549  0.38476  Biso   1.000  C
  C402     1.0000 0.61794  0.83603  0.39870  Biso   1.000  C
  C403     1.0000 0.57010  0.85873  0.40119  Biso   1.000  C
  C404     1.0000 0.54801  0.84121  0.39127  Biso   1.000  C
  C405     1.0000 0.57522  0.79994  0.37881  Biso   1.000  C
  C406     1.0000 0.62388  0.77731  0.37507  Biso   1.000  C
  C407     1.0000 0.49616  0.86626  0.39398  Biso   1.000  C
  C408     1.0000 0.94806  0.01480  0.23830  Biso   1.000  C
  C409     1.0000 0.97088  0.03808  0.19073  Biso   1.000  C
  C410     1.0000 0.79371  0.86234  0.57106  Biso   1.000  C
  C411     1.0000 0.77031  0.83821  0.61784  Biso   1.000  C
  C412     1.0000 0.09803  0.73305  0.39972  Biso   1.000  C
  C413     1.0000 0.03877  0.80293  0.42450  Biso   1.000  C
  C414     1.0000 0.08324  0.76552  0.42272  Biso   1.000  C
  C415     1.0000 0.06836  0.73799  0.37849  Biso   1.000  C
  C416     1.0000 0.02387  0.77539  0.38027  Biso   1.000  C
  C417     1.0000 0.43222  0.94457  0.01211  Biso   1.000  C
  C418     1.0000 0.43321  0.96853  0.03579  Biso   1.000  C
  C419     1.0000 0.43330  0.08783  0.01735  Biso   1.000  C
  C420     1.0000 0.43156  0.16383  0.01581  Biso   1.000  C
  C421     1.0000 0.41002  0.19475  0.97916  Biso   1.000  C
  C422     1.0000 0.40813  0.24260  0.95510  Biso   1.000  C
  C423     1.0000 0.45113  0.18440  0.02676  Biso   1.000  C
  C424     1.0000 0.44786  0.23320  0.00331  Biso   1.000  C
  C425     1.0000 0.42574  0.26275  0.96915  Biso   1.000  C
  C426     1.0000 0.42063  0.31558  0.94471  Biso   1.000  C
  C427     1.0000 0.43334  0.11309  0.04065  Biso   1.000  C
  C428     1.0000 0.37975  0.80152  0.86721  Biso   1.000  C
  C429     1.0000 0.37648  0.77793  0.84391  Biso   1.000  C
  C430     1.0000 0.37919  0.72437  0.79525  Biso   1.000  C
  C431     1.0000 0.38212  0.69854  0.77063  Biso   1.000  C
  C432     1.0000 0.38476  0.64638  0.79549  Biso   1.000  C
  C433     1.0000 0.39870  0.61794  0.83603  Biso   1.000  C
  C434     1.0000 0.40119  0.57010  0.85873  Biso   1.000  C
  C435     1.0000 0.39127  0.54801  0.84121  Biso   1.000  C
  C436     1.0000 0.37881  0.57522  0.79994  Biso   1.000  C
  C437     1.0000 0.37507  0.62388  0.77731  Biso   1.000  C
  C438     1.0000 0.39398  0.49616  0.86626  Biso   1.000  C
  C439     1.0000 0.23830  0.94806  0.01480  Biso   1.000  C
  C440     1.0000 0.19073  0.97088  0.03808  Biso   1.000  C
  C441     1.0000 0.57106  0.79371  0.86234  Biso   1.000  C
  C442     1.0000 0.61784  0.77031  0.83821  Biso   1.000  C
  C443     1.0000 0.39972  0.09803  0.73305  Biso   1.000  C
  C444     1.0000 0.42450  0.03877  0.80293  Biso   1.000  C
  C445     1.0000 0.42272  0.08324  0.76552  Biso   1.000  C
  C446     1.0000 0.37849  0.06836  0.73799  Biso   1.000  C
  C447     1.0000 0.38027  0.02387  0.77539  Biso   1.000  C
  C448     1.0000 0.43064  0.00535  0.43064  Biso   1.000  C
  C449     1.0000 0.42714  0.05555  0.42714  Biso   1.000  C
  C450     1.0000 0.41004  0.08615  0.41004  Biso   1.000  C
  C451     1.0000 0.38309  0.09513  0.38309  Biso   1.000  C
  C452     1.0000 0.38444  0.05005  0.38444  Biso   1.000  C
  C453     1.0000 0.00535  0.43064  0.43064  Biso   1.000  C
  C454     1.0000 0.05555  0.42714  0.42713  Biso   1.000  C
  C455     1.0000 0.08615  0.41004  0.41004  Biso   1.000  C
  C456     1.0000 0.09513  0.38309  0.38309  Biso   1.000  C
  C457     1.0000 0.05005  0.38444  0.38443  Biso   1.000  C
  C458     1.0000 0.43064  0.43064  0.00535  Biso   1.000  C
  C459     1.0000 0.42714  0.42714  0.05555  Biso   1.000  C
  C460     1.0000 0.41004  0.41004  0.08615  Biso   1.000  C
  C461     1.0000 0.38309  0.38309  0.09513  Biso   1.000  C
  C462     1.0000 0.38444  0.38444  0.05005  Biso   1.000  C
  C463     1.0000 0.42350  0.94334  0.94334  Biso   1.000  C
  C464     1.0000 0.42811  0.96757  0.96757  Biso   1.000  C
  C465     1.0000 0.43279  0.01461  0.01461  Biso   1.000  C
  C466     1.0000 0.43386  0.04019  0.04019  Biso   1.000  C
  C467     1.0000 0.43335  0.08861  0.08861  Biso   1.000  C
  C468     1.0000 0.31589  0.94559  0.94559  Biso   1.000  C
  C469     1.0000 0.26326  0.97003  0.97003  Biso   1.000  C
  C470     1.0000 0.16568  0.01660  0.01660  Biso   1.000  C
  C471     1.0000 0.11368  0.04179  0.04179  Biso   1.000  C
  C472     1.0000 0.49502  0.86585  0.86585  Biso   1.000  C
  C473     1.0000 0.54646  0.84055  0.84055  Biso   1.000  C
  C474     1.0000 0.64295  0.79211  0.79211  Biso   1.000  C
  C475     1.0000 0.69365  0.76630  0.76630  Biso   1.000  C
  C476     1.0000 0.94334  0.94334  0.42350  Biso   1.000  C
  C477     1.0000 0.96757  0.96757  0.42811  Biso   1.000  C
  C478     1.0000 0.01461  0.01461  0.43279  Biso   1.000  C
  C479     1.0000 0.04019  0.04019  0.43386  Biso   1.000  C
  C480     1.0000 0.08861  0.08861  0.43335  Biso   1.000  C
  C481     1.0000 0.94559  0.94559  0.31589  Biso   1.000  C
  C482     1.0000 0.97003  0.97003  0.26326  Biso   1.000  C
  C483     1.0000 0.01660  0.01660  0.16568  Biso   1.000  C
  C484     1.0000 0.04179  0.04179  0.11368  Biso   1.000  C
  C485     1.0000 0.86585  0.86585  0.49502  Biso   1.000  C
  C486     1.0000 0.84055  0.84055  0.54646  Biso   1.000  C
  C487     1.0000 0.79211  0.79211  0.64295  Biso   1.000  C
  C488     1.0000 0.76630  0.76630  0.69365  Biso   1.000  C
  C489     1.0000 0.94334  0.42350  0.94334  Biso   1.000  C
  C490     1.0000 0.96757  0.42811  0.96757  Biso   1.000  C
  C491     1.0000 0.01461  0.43279  0.01461  Biso   1.000  C
  C492     1.0000 0.04019  0.43386  0.04019  Biso   1.000  C
  C493     1.0000 0.08861  0.43335  0.08861  Biso   1.000  C
  C494     1.0000 0.94559  0.31589  0.94559  Biso   1.000  C
  C495     1.0000 0.97003  0.26326  0.97003  Biso   1.000  C
  C496     1.0000 0.01660  0.16568  0.01660  Biso   1.000  C
  C497     1.0000 0.04179  0.11368  0.04179  Biso   1.000  C
  C498     1.0000 0.86585  0.49502  0.86585  Biso   1.000  C
  C499     1.0000 0.84055  0.54646  0.84055  Biso   1.000  C
  C500     1.0000 0.79211  0.64295  0.79211  Biso   1.000  C
  C501     1.0000 0.76630  0.69365  0.76630  Biso   1.000  C
  C502     1.0000 0.38786  0.86940  0.86940  Biso   1.000  C
  C503     1.0000 0.38234  0.84528  0.84528  Biso   1.000  C
  C504     1.0000 0.37736  0.79830  0.79830  Biso   1.000  C
  C505     1.0000 0.37784  0.77241  0.77241  Biso   1.000  C
  C506     1.0000 0.38388  0.72250  0.72250  Biso   1.000  C
  C507     1.0000 0.86940  0.86940  0.38786  Biso   1.000  C
  C508     1.0000 0.84528  0.84528  0.38234  Biso   1.000  C
  C509     1.0000 0.79830  0.79830  0.37736  Biso   1.000  C
  C510     1.0000 0.77241  0.77241  0.37784  Biso   1.000  C
  C511     1.0000 0.72250  0.72250  0.38388  Biso   1.000  C
  C512     1.0000 0.86940  0.38786  0.86940  Biso   1.000  C
  C513     1.0000 0.84528  0.38234  0.84528  Biso   1.000  C
  C514     1.0000 0.79830  0.37736  0.79830  Biso   1.000  C
  C515     1.0000 0.77241  0.37784  0.77241  Biso   1.000  C
  C516     1.0000 0.72250  0.38388  0.72250  Biso   1.000  C
  C517     1.0000 0.08913  0.08913  0.01873  Biso   1.000  C
  C518     1.0000 0.08913  0.01873  0.08913  Biso   1.000  C
  C519     1.0000 0.01873  0.08913  0.08913  Biso   1.000  C
  C520     1.0000 0.71849  0.71849  0.78974  Biso   1.000  C
  C521     1.0000 0.71849  0.78974  0.71849  Biso   1.000  C
  C522     1.0000 0.78974  0.71849  0.71849  Biso   1.000  C
  N10      1.0000 0.40471  0.80547  0.01015  Biso   1.000  N
  N11      1.0000 0.80547  0.01015  0.40471  Biso   1.000  N
  N12      1.0000 0.01015  0.40471  0.80547  Biso   1.000  N
  N13      1.0000 0.80547  0.40471  0.01015  Biso   1.000  N
  N14      1.0000 0.01015  0.80547  0.40471  Biso   1.000  N
  N15      1.0000 0.40471  0.01015  0.80547  Biso   1.000  N
  N16      1.0000 0.40704  0.00815  0.40704  Biso   1.000  N
  N17      1.0000 0.00815  0.40704  0.40704  Biso   1.000  N
  N18      1.0000 0.40704  0.40704  0.00815  Biso   1.000  N
  O52      1.0000 0.42121  0.90088  0.96733  Biso   1.000  O
  O53      1.0000 0.41921  0.96773  0.33667  Biso   1.000  O
  O54      1.0000 0.41672  0.90286  0.33542  Biso   1.000  O
  O55      1.0000 0.39059  0.84512  0.91126  Biso   1.000  O
  O56      1.0000 0.39379  0.84284  0.47564  Biso   1.000  O
  O57      1.0000 0.39623  0.90780  0.47679  Biso   1.000  O
  O58      1.0000 0.33619  0.90354  0.96962  Biso   1.000  O
  O59      1.0000 0.47499  0.84227  0.90853  Biso   1.000  O
  O60      1.0000 0.90088  0.96733  0.42121  Biso   1.000  O
  O61      1.0000 0.96773  0.33667  0.41921  Biso   1.000  O
  O62      1.0000 0.90286  0.33542  0.41672  Biso   1.000  O
  O63      1.0000 0.84512  0.91126  0.39059  Biso   1.000  O
  O64      1.0000 0.84284  0.47564  0.39379  Biso   1.000  O
  O65      1.0000 0.90780  0.47679  0.39623  Biso   1.000  O
  O66      1.0000 0.90354  0.96962  0.33619  Biso   1.000  O
  O67      1.0000 0.84227  0.90853  0.47499  Biso   1.000  O
  O68      1.0000 0.96733  0.42121  0.90088  Biso   1.000  O
  O69      1.0000 0.33667  0.41921  0.96773  Biso   1.000  O
  O70      1.0000 0.33542  0.41672  0.90286  Biso   1.000  O
  O71      1.0000 0.91126  0.39059  0.84512  Biso   1.000  O
  O72      1.0000 0.47564  0.39379  0.84284  Biso   1.000  O
  O73      1.0000 0.47679  0.39623  0.90780  Biso   1.000  O
  O74      1.0000 0.96962  0.33619  0.90354  Biso   1.000  O
  O75      1.0000 0.90853  0.47499  0.84227  Biso   1.000  O
  O76      1.0000 0.90088  0.42121  0.96733  Biso   1.000  O
  O77      1.0000 0.96773  0.41921  0.33667  Biso   1.000  O
  O78      1.0000 0.90286  0.41672  0.33542  Biso   1.000  O
  O79      1.0000 0.84512  0.39059  0.91126  Biso   1.000  O
  O80      1.0000 0.84284  0.39379  0.47564  Biso   1.000  O
  O81      1.0000 0.90780  0.39623  0.47679  Biso   1.000  O
  O82      1.0000 0.90354  0.33619  0.96962  Biso   1.000  O
  O83      1.0000 0.84227  0.47499  0.90853  Biso   1.000  O
  O84      1.0000 0.96733  0.90088  0.42121  Biso   1.000  O
  O85      1.0000 0.33667  0.96773  0.41921  Biso   1.000  O
  O86      1.0000 0.33542  0.90286  0.41672  Biso   1.000  O
  O87      1.0000 0.91126  0.84512  0.39059  Biso   1.000  O
  O88      1.0000 0.47564  0.84284  0.39379  Biso   1.000  O
  O89      1.0000 0.47679  0.90780  0.39623  Biso   1.000  O
  O90      1.0000 0.96962  0.90354  0.33619  Biso   1.000  O
  O91      1.0000 0.90853  0.84227  0.47499  Biso   1.000  O
  O92      1.0000 0.42121  0.96733  0.90088  Biso   1.000  O
  O93      1.0000 0.41921  0.33667  0.96773  Biso   1.000  O
  O94      1.0000 0.41672  0.33542  0.90286  Biso   1.000  O
  O95      1.0000 0.39059  0.91126  0.84512  Biso   1.000  O
  O96      1.0000 0.39379  0.47564  0.84284  Biso   1.000  O
  O97      1.0000 0.39623  0.47679  0.90780  Biso   1.000  O
  O98      1.0000 0.33619  0.96962  0.90354  Biso   1.000  O
  O99      1.0000 0.47499  0.90853  0.84227  Biso   1.000  O
  O100     1.0000 0.40383  0.80406  0.40383  Biso   1.000  O
  O101     1.0000 0.80406  0.40383  0.40383  Biso   1.000  O
  O102     1.0000 0.40383  0.40383  0.80406  Biso   1.000  O
