data_image0
_cell_length_a       34.4746
_cell_length_b       15.0255
_cell_length_c       30.1535
_cell_angle_alpha    90
_cell_angle_beta     99.681
_cell_angle_gamma    90

_symmetry_space_group_name_H-M    "P 1"
_symmetry_int_tables_number       1

loop_
  _symmetry_equiv_pos_as_xyz
  'x, y, z'

loop_
  _atom_site_label
  _atom_site_occupancy
  _atom_site_fract_x
  _atom_site_fract_y
  _atom_site_fract_z
  _atom_site_thermal_displace_type
  _atom_site_B_iso_or_equiv
  _atom_site_type_symbol
  I1       1.0000 0.39600  0.72350  0.39820  Biso   1.000  I
  Zn1      1.0000 0.36863  0.59477  0.44686  Biso   1.000  Zn
  N1       1.0000 0.41390  0.50480  0.45000  Biso   1.000  N
  I2       1.0000 0.34820  0.61240  0.51740  Biso   1.000  I
  N2       1.0000 0.32590  0.53200  0.40160  Biso   1.000  N
  C1       1.0000 0.30450  0.57570  0.36730  Biso   1.000  C
  C2       1.0000 0.31850  0.44650  0.40690  Biso   1.000  C
  C3       1.0000 0.27560  0.53520  0.33710  Biso   1.000  C
  H1       1.0000 0.30940  0.63730  0.36370  Biso   1.000  H
  C4       1.0000 0.29030  0.39940  0.37750  Biso   1.000  C
  H2       1.0000 0.33310  0.41590  0.43180  Biso   1.000  H
  C5       1.0000 0.26840  0.44480  0.34180  Biso   1.000  C
  H3       1.0000 0.26070  0.56850  0.31340  Biso   1.000  H
  H4       1.0000 0.28620  0.33770  0.38190  Biso   1.000  H
  C6       1.0000 0.23760  0.40180  0.30970  Biso   1.000  C
  N3       1.0000 0.23150  0.31230  0.31420  Biso   1.000  N
  N4       1.0000 0.21800  0.45150  0.27660  Biso   1.000  N
  C7       1.0000 0.20340  0.27950  0.28470  Biso   1.000  C
  C8       1.0000 0.18960  0.41010  0.24920  Biso   1.000  C
  C9       1.0000 0.19710  0.18010  0.28320  Biso   1.000  C
  N5       1.0000 0.18070  0.32370  0.25240  Biso   1.000  N
  C10      1.0000 0.16650  0.46170  0.21240  Biso   1.000  C
  C11      1.0000 0.21920  0.12200  0.31230  Biso   1.000  C
  C12      1.0000 0.16860  0.14470  0.25090  Biso   1.000  C
  C13      1.0000 0.17390  0.54930  0.20540  Biso   1.000  C
  C14      1.0000 0.13620  0.42000  0.18370  Biso   1.000  C
  C15      1.0000 0.21150  0.03300  0.30930  Biso   1.000  C
  H5       1.0000 0.23970  0.14390  0.33460  Biso   1.000  H
  C16      1.0000 0.16360  0.05290  0.24920  Biso   1.000  C
  H6       1.0000 0.15260  0.18220  0.22990  Biso   1.000  H
  C17      1.0000 0.15110  0.59350  0.16990  Biso   1.000  C
  H7       1.0000 0.19440  0.57950  0.22460  Biso   1.000  H
  C18      1.0000 0.11360  0.46960  0.15090  Biso   1.000  C
  H8       1.0000 0.13120  0.35830  0.18670  Biso   1.000  H
  N6       1.0000 0.18480  0.99840  0.27740  Biso   1.000  N
  H9       1.0000 0.22600  0.99430  0.33090  Biso   1.000  H
  H10      1.0000 0.14390  0.02850  0.22660  Biso   1.000  H
  N7       1.0000 0.12180  0.55470  0.14270  Biso   1.000  N
  H11      1.0000 0.15680  0.65420  0.16490  Biso   1.000  H
  H12      1.0000 0.09130  0.44260  0.13330  Biso   1.000  H
  Zn2      1.0000 0.17170  0.86050  0.26940  Biso   1.000  Zn
  Zn3      1.0000 0.08275  0.62515  0.09529  Biso   1.000  Zn
  N8       1.0000 0.13750  0.84470  0.31800  Biso   1.000  N
  I3       1.0000 0.12992  0.84010  0.19280  Biso   1.000  I
  I4       1.0000 0.23327  0.76630  0.29380  Biso   1.000  I
  I5       1.0000 0.02413  0.65350  0.13571  Biso   1.000  I
  I6       1.0000 0.11963  0.73530  0.05501  Biso   1.000  I
  N9       1.0000 0.06670  0.52080  0.05080  Biso   1.000  N
  C19      1.0000 0.14090  0.77540  0.34430  Biso   1.000  C
  C20      1.0000 0.11260  0.90450  0.32730  Biso   1.000  C
  C21      1.0000 0.11710  0.75670  0.37490  Biso   1.000  C
  H13      1.0000 0.16160  0.73480  0.34200  Biso   1.000  H
  C22      1.0000 0.08710  0.88800  0.35660  Biso   1.000  C
  H14      1.0000 0.11200  0.96120  0.31330  Biso   1.000  H
  C23      1.0000 0.08880  0.81150  0.37980  Biso   1.000  C
  H15      1.0000 0.12100  0.70410  0.39260  Biso   1.000  H
  H16      1.0000 0.06800  0.93140  0.36060  Biso   1.000  H
  C24      1.0000 0.06310  0.79640  0.41430  Biso   1.000  C
  N10      1.0000 0.07020  0.72220  0.43920  Biso   1.000  N
  N11      1.0000 0.03420  0.85430  0.41670  Biso   1.000  N
  C25      1.0000 0.04670  0.71080  0.47000  Biso   1.000  C
  C26      1.0000 0.01220  0.83460  0.44720  Biso   1.000  C
  C27      1.0000 0.05230  0.63030  0.49800  Biso   1.000  C
  N12      1.0000 0.01730  0.76570  0.47640  Biso   1.000  N
  C28      1.0000 0.97780  0.89380  0.44990  Biso   1.000  C
  C29      1.0000 0.08460  0.57540  0.49490  Biso   1.000  C
  C30      1.0000 0.02780  0.60640  0.52700  Biso   1.000  C
  C31      1.0000 0.95850  0.93270  0.41040  Biso   1.000  C
  C32      1.0000 0.96270  0.90650  0.48770  Biso   1.000  C
  C33      1.0000 0.08970  0.50230  0.52200  Biso   1.000  C
  H17      1.0000 0.10220  0.58860  0.47470  Biso   1.000  H
  H18      1.0000 0.00540  0.64170  0.52950  Biso   1.000  H
  C34      1.0000 0.03560  0.53180  0.55200  Biso   1.000  C
  C35      1.0000 0.92820  0.98860  0.41310  Biso   1.000  C
  H19      1.0000 0.96640  0.92040  0.38230  Biso   1.000  H
  C36      1.0000 0.93080  0.96310  0.48730  Biso   1.000  C
  H20      1.0000 0.97380  0.87680  0.51460  Biso   1.000  H
  H21      1.0000 0.11160  0.46500  0.52000  Biso   1.000  H
  H22      1.0000 0.01790  0.51590  0.57170  Biso   1.000  H
  H23      1.0000 0.91630  0.01820  0.38640  Biso   1.000  H
  H24      1.0000 0.92070  0.97240  0.51440  Biso   1.000  H
  I7       1.0000 0.38490  0.73040  0.41230  Biso   1.000  I
  I8       1.0000 0.34420  0.58350  0.52600  Biso   1.000  I
  Zn4      1.0000 0.67770  0.36720  0.27570  Biso   1.000  Zn
  I9       1.0000 0.73840  0.28510  0.30910  Biso   1.000  I
  I10      1.0000 0.63730  0.33780  0.19730  Biso   1.000  I
  I11      1.0000 0.53020  0.17400  0.12880  Biso   1.000  I
  I12      1.0000 0.63210  0.22050  0.05560  Biso   1.000  I
  I13      1.0000 0.38210  0.74320  0.42100  Biso   1.000  I
  I14      1.0000 0.34260  0.56000  0.52750  Biso   1.000  I
  I15      1.0000 0.89600  0.22350  0.39820  Biso   1.000  I
  Zn5      1.0000 0.86863  0.09477  0.44686  Biso   1.000  Zn
  N13      1.0000 0.91390  0.00480  0.45000  Biso   1.000  N
  I16      1.0000 0.84820  0.11240  0.51740  Biso   1.000  I
  N14      1.0000 0.82590  0.03200  0.40160  Biso   1.000  N
  C37      1.0000 0.80450  0.07570  0.36730  Biso   1.000  C
  C38      1.0000 0.81850  0.94650  0.40690  Biso   1.000  C
  C39      1.0000 0.77560  0.03520  0.33710  Biso   1.000  C
  H25      1.0000 0.80940  0.13730  0.36370  Biso   1.000  H
  C40      1.0000 0.79030  0.89940  0.37750  Biso   1.000  C
  H26      1.0000 0.83310  0.91590  0.43180  Biso   1.000  H
  C41      1.0000 0.76840  0.94480  0.34180  Biso   1.000  C
  H27      1.0000 0.76070  0.06850  0.31340  Biso   1.000  H
  H28      1.0000 0.78620  0.83770  0.38190  Biso   1.000  H
  C42      1.0000 0.73760  0.90180  0.30970  Biso   1.000  C
  N15      1.0000 0.73150  0.81230  0.31420  Biso   1.000  N
  N16      1.0000 0.71800  0.95150  0.27660  Biso   1.000  N
  C43      1.0000 0.70340  0.77950  0.28470  Biso   1.000  C
  C44      1.0000 0.68960  0.91010  0.24920  Biso   1.000  C
  C45      1.0000 0.69710  0.68010  0.28320  Biso   1.000  C
  N17      1.0000 0.68070  0.82370  0.25240  Biso   1.000  N
  C46      1.0000 0.66650  0.96170  0.21240  Biso   1.000  C
  C47      1.0000 0.71920  0.62200  0.31230  Biso   1.000  C
  C48      1.0000 0.66860  0.64470  0.25090  Biso   1.000  C
  C49      1.0000 0.67390  0.04930  0.20540  Biso   1.000  C
  C50      1.0000 0.63620  0.92000  0.18370  Biso   1.000  C
  C51      1.0000 0.71150  0.53300  0.30930  Biso   1.000  C
  H29      1.0000 0.73970  0.64390  0.33460  Biso   1.000  H
  C52      1.0000 0.66360  0.55290  0.24920  Biso   1.000  C
  H30      1.0000 0.65260  0.68220  0.22990  Biso   1.000  H
  C53      1.0000 0.65110  0.09350  0.16990  Biso   1.000  C
  H31      1.0000 0.69440  0.07950  0.22460  Biso   1.000  H
  C54      1.0000 0.61360  0.96960  0.15090  Biso   1.000  C
  H32      1.0000 0.63120  0.85830  0.18670  Biso   1.000  H
  N18      1.0000 0.68480  0.49840  0.27740  Biso   1.000  N
  H33      1.0000 0.72600  0.49430  0.33090  Biso   1.000  H
  H34      1.0000 0.64390  0.52850  0.22660  Biso   1.000  H
  N19      1.0000 0.62180  0.05470  0.14270  Biso   1.000  N
  H35      1.0000 0.65680  0.15420  0.16490  Biso   1.000  H
  H36      1.0000 0.59130  0.94260  0.13330  Biso   1.000  H
  Zn6      1.0000 0.67170  0.36050  0.26940  Biso   1.000  Zn
  Zn7      1.0000 0.58275  0.12515  0.09529  Biso   1.000  Zn
  N20      1.0000 0.63750  0.34470  0.31800  Biso   1.000  N
  I17      1.0000 0.62992  0.34010  0.19280  Biso   1.000  I
  I18      1.0000 0.73327  0.26630  0.29380  Biso   1.000  I
  I19      1.0000 0.52413  0.15350  0.13571  Biso   1.000  I
  I20      1.0000 0.61963  0.23530  0.05501  Biso   1.000  I
  N21      1.0000 0.56670  0.02080  0.05080  Biso   1.000  N
  C55      1.0000 0.64090  0.27540  0.34430  Biso   1.000  C
  C56      1.0000 0.61260  0.40450  0.32730  Biso   1.000  C
  C57      1.0000 0.61710  0.25670  0.37490  Biso   1.000  C
  H37      1.0000 0.66160  0.23480  0.34200  Biso   1.000  H
  C58      1.0000 0.58710  0.38800  0.35660  Biso   1.000  C
  H38      1.0000 0.61200  0.46120  0.31330  Biso   1.000  H
  C59      1.0000 0.58880  0.31150  0.37980  Biso   1.000  C
  H39      1.0000 0.62100  0.20410  0.39260  Biso   1.000  H
  H40      1.0000 0.56800  0.43140  0.36060  Biso   1.000  H
  C60      1.0000 0.56310  0.29640  0.41430  Biso   1.000  C
  N22      1.0000 0.57020  0.22220  0.43920  Biso   1.000  N
  N23      1.0000 0.53420  0.35430  0.41670  Biso   1.000  N
  C61      1.0000 0.54670  0.21080  0.47000  Biso   1.000  C
  C62      1.0000 0.51220  0.33460  0.44720  Biso   1.000  C
  C63      1.0000 0.55230  0.13030  0.49800  Biso   1.000  C
  N24      1.0000 0.51730  0.26570  0.47640  Biso   1.000  N
  C64      1.0000 0.47780  0.39380  0.44990  Biso   1.000  C
  C65      1.0000 0.58460  0.07540  0.49490  Biso   1.000  C
  C66      1.0000 0.52780  0.10640  0.52700  Biso   1.000  C
  C67      1.0000 0.45850  0.43270  0.41040  Biso   1.000  C
  C68      1.0000 0.46270  0.40650  0.48770  Biso   1.000  C
  C69      1.0000 0.58970  0.00230  0.52200  Biso   1.000  C
  H41      1.0000 0.60220  0.08860  0.47470  Biso   1.000  H
  H42      1.0000 0.50540  0.14170  0.52950  Biso   1.000  H
  C70      1.0000 0.53560  0.03180  0.55200  Biso   1.000  C
  C71      1.0000 0.42820  0.48860  0.41310  Biso   1.000  C
  H43      1.0000 0.46640  0.42040  0.38230  Biso   1.000  H
  C72      1.0000 0.43080  0.46310  0.48730  Biso   1.000  C
  H44      1.0000 0.47380  0.37680  0.51460  Biso   1.000  H
  H45      1.0000 0.61160  0.96500  0.52000  Biso   1.000  H
  H46      1.0000 0.51790  0.01590  0.57170  Biso   1.000  H
  H47      1.0000 0.41630  0.51820  0.38640  Biso   1.000  H
  H48      1.0000 0.42070  0.47240  0.51440  Biso   1.000  H
  I21      1.0000 0.88490  0.23040  0.41230  Biso   1.000  I
  I22      1.0000 0.84420  0.08350  0.52600  Biso   1.000  I
  Zn8      1.0000 0.17770  0.86720  0.27570  Biso   1.000  Zn
  I23      1.0000 0.23840  0.78510  0.30910  Biso   1.000  I
  I24      1.0000 0.13730  0.83780  0.19730  Biso   1.000  I
  I25      1.0000 0.03020  0.67400  0.12880  Biso   1.000  I
  I26      1.0000 0.13210  0.72050  0.05560  Biso   1.000  I
  I27      1.0000 0.88210  0.24320  0.42100  Biso   1.000  I
  I28      1.0000 0.84260  0.06000  0.52750  Biso   1.000  I
  I29      1.0000 0.39600  0.27650  0.89820  Biso   1.000  I
  Zn9      1.0000 0.36863  0.40523  0.94686  Biso   1.000  Zn
  N25      1.0000 0.41390  0.49520  0.95000  Biso   1.000  N
  I30      1.0000 0.34820  0.38760  0.01740  Biso   1.000  I
  N26      1.0000 0.32590  0.46800  0.90160  Biso   1.000  N
  C73      1.0000 0.30450  0.42430  0.86730  Biso   1.000  C
  C74      1.0000 0.31850  0.55350  0.90690  Biso   1.000  C
  C75      1.0000 0.27560  0.46480  0.83710  Biso   1.000  C
  H49      1.0000 0.30940  0.36270  0.86370  Biso   1.000  H
  C76      1.0000 0.29030  0.60060  0.87750  Biso   1.000  C
  H50      1.0000 0.33310  0.58410  0.93180  Biso   1.000  H
  C77      1.0000 0.26840  0.55520  0.84180  Biso   1.000  C
  H51      1.0000 0.26070  0.43150  0.81340  Biso   1.000  H
  H52      1.0000 0.28620  0.66230  0.88190  Biso   1.000  H
  C78      1.0000 0.23760  0.59820  0.80970  Biso   1.000  C
  N27      1.0000 0.23150  0.68770  0.81420  Biso   1.000  N
  N28      1.0000 0.21800  0.54850  0.77660  Biso   1.000  N
  C79      1.0000 0.20340  0.72050  0.78470  Biso   1.000  C
  C80      1.0000 0.18960  0.58990  0.74920  Biso   1.000  C
  C81      1.0000 0.19710  0.81990  0.78320  Biso   1.000  C
  N29      1.0000 0.18070  0.67630  0.75240  Biso   1.000  N
  C82      1.0000 0.16650  0.53830  0.71240  Biso   1.000  C
  C83      1.0000 0.21920  0.87800  0.81230  Biso   1.000  C
  C84      1.0000 0.16860  0.85530  0.75090  Biso   1.000  C
  C85      1.0000 0.17390  0.45070  0.70540  Biso   1.000  C
  C86      1.0000 0.13620  0.58000  0.68370  Biso   1.000  C
  C87      1.0000 0.21150  0.96700  0.80930  Biso   1.000  C
  H53      1.0000 0.23970  0.85610  0.83460  Biso   1.000  H
  C88      1.0000 0.16360  0.94710  0.74920  Biso   1.000  C
  H54      1.0000 0.15260  0.81780  0.72990  Biso   1.000  H
  C89      1.0000 0.15110  0.40650  0.66990  Biso   1.000  C
  H55      1.0000 0.19440  0.42050  0.72460  Biso   1.000  H
  C90      1.0000 0.11360  0.53040  0.65090  Biso   1.000  C
  H56      1.0000 0.13120  0.64170  0.68670  Biso   1.000  H
  N30      1.0000 0.18480  0.00160  0.77740  Biso   1.000  N
  H57      1.0000 0.22600  0.00570  0.83090  Biso   1.000  H
  H58      1.0000 0.14390  0.97150  0.72660  Biso   1.000  H
  N31      1.0000 0.12180  0.44530  0.64270  Biso   1.000  N
  H59      1.0000 0.15680  0.34580  0.66490  Biso   1.000  H
  H60      1.0000 0.09130  0.55740  0.63330  Biso   1.000  H
  Zn10     1.0000 0.17170  0.13950  0.76940  Biso   1.000  Zn
  Zn11     1.0000 0.08275  0.37485  0.59529  Biso   1.000  Zn
  N32      1.0000 0.13750  0.15530  0.81800  Biso   1.000  N
  I31      1.0000 0.12992  0.15990  0.69280  Biso   1.000  I
  I32      1.0000 0.23327  0.23370  0.79380  Biso   1.000  I
  I33      1.0000 0.02413  0.34650  0.63571  Biso   1.000  I
  I34      1.0000 0.11963  0.26470  0.55501  Biso   1.000  I
  N33      1.0000 0.06670  0.47920  0.55080  Biso   1.000  N
  C91      1.0000 0.14090  0.22460  0.84430  Biso   1.000  C
  C92      1.0000 0.11260  0.09550  0.82730  Biso   1.000  C
  C93      1.0000 0.11710  0.24330  0.87490  Biso   1.000  C
  H61      1.0000 0.16160  0.26520  0.84200  Biso   1.000  H
  C94      1.0000 0.08710  0.11200  0.85660  Biso   1.000  C
  H62      1.0000 0.11200  0.03880  0.81330  Biso   1.000  H
  C95      1.0000 0.08880  0.18850  0.87980  Biso   1.000  C
  H63      1.0000 0.12100  0.29590  0.89260  Biso   1.000  H
  H64      1.0000 0.06800  0.06860  0.86060  Biso   1.000  H
  C96      1.0000 0.06310  0.20360  0.91430  Biso   1.000  C
  N34      1.0000 0.07020  0.27780  0.93920  Biso   1.000  N
  N35      1.0000 0.03420  0.14570  0.91670  Biso   1.000  N
  C97      1.0000 0.04670  0.28920  0.97000  Biso   1.000  C
  C98      1.0000 0.01220  0.16540  0.94720  Biso   1.000  C
  C99      1.0000 0.05230  0.36970  0.99800  Biso   1.000  C
  N36      1.0000 0.01730  0.23430  0.97640  Biso   1.000  N
  C100     1.0000 0.97780  0.10620  0.94990  Biso   1.000  C
  C101     1.0000 0.08460  0.42460  0.99490  Biso   1.000  C
  C102     1.0000 0.02780  0.39360  0.02700  Biso   1.000  C
  C103     1.0000 0.95850  0.06730  0.91040  Biso   1.000  C
  C104     1.0000 0.96270  0.09350  0.98770  Biso   1.000  C
  C105     1.0000 0.08970  0.49770  0.02200  Biso   1.000  C
  H65      1.0000 0.10220  0.41140  0.97470  Biso   1.000  H
  H66      1.0000 0.00540  0.35830  0.02950  Biso   1.000  H
  C106     1.0000 0.03560  0.46820  0.05200  Biso   1.000  C
  C107     1.0000 0.92820  0.01140  0.91310  Biso   1.000  C
  H67      1.0000 0.96640  0.07960  0.88230  Biso   1.000  H
  C108     1.0000 0.93080  0.03690  0.98730  Biso   1.000  C
  H68      1.0000 0.97380  0.12320  0.01460  Biso   1.000  H
  H69      1.0000 0.11160  0.53500  0.02000  Biso   1.000  H
  H70      1.0000 0.01790  0.48410  0.07170  Biso   1.000  H
  H71      1.0000 0.91630  0.98180  0.88640  Biso   1.000  H
  H72      1.0000 0.92070  0.02760  0.01440  Biso   1.000  H
  I35      1.0000 0.38490  0.26960  0.91230  Biso   1.000  I
  I36      1.0000 0.34420  0.41650  0.02600  Biso   1.000  I
  Zn12     1.0000 0.67770  0.63280  0.77570  Biso   1.000  Zn
  I37      1.0000 0.73840  0.71490  0.80910  Biso   1.000  I
  I38      1.0000 0.63730  0.66220  0.69730  Biso   1.000  I
  I39      1.0000 0.53020  0.82600  0.62880  Biso   1.000  I
  I40      1.0000 0.63210  0.77950  0.55560  Biso   1.000  I
  I41      1.0000 0.38210  0.25680  0.92100  Biso   1.000  I
  I42      1.0000 0.34260  0.44000  0.02750  Biso   1.000  I
  I43      1.0000 0.89600  0.77650  0.89820  Biso   1.000  I
  Zn13     1.0000 0.86863  0.90523  0.94686  Biso   1.000  Zn
  N37      1.0000 0.91390  0.99520  0.95000  Biso   1.000  N
  I44      1.0000 0.84820  0.88760  0.01740  Biso   1.000  I
  N38      1.0000 0.82590  0.96800  0.90160  Biso   1.000  N
  C109     1.0000 0.80450  0.92430  0.86730  Biso   1.000  C
  C110     1.0000 0.81850  0.05350  0.90690  Biso   1.000  C
  C111     1.0000 0.77560  0.96480  0.83710  Biso   1.000  C
  H73      1.0000 0.80940  0.86270  0.86370  Biso   1.000  H
  C112     1.0000 0.79030  0.10060  0.87750  Biso   1.000  C
  H74      1.0000 0.83310  0.08410  0.93180  Biso   1.000  H
  C113     1.0000 0.76840  0.05520  0.84180  Biso   1.000  C
  H75      1.0000 0.76070  0.93150  0.81340  Biso   1.000  H
  H76      1.0000 0.78620  0.16230  0.88190  Biso   1.000  H
  C114     1.0000 0.73760  0.09820  0.80970  Biso   1.000  C
  N39      1.0000 0.73150  0.18770  0.81420  Biso   1.000  N
  N40      1.0000 0.71800  0.04850  0.77660  Biso   1.000  N
  C115     1.0000 0.70340  0.22050  0.78470  Biso   1.000  C
  C116     1.0000 0.68960  0.08990  0.74920  Biso   1.000  C
  C117     1.0000 0.69710  0.31990  0.78320  Biso   1.000  C
  N41      1.0000 0.68070  0.17630  0.75240  Biso   1.000  N
  C118     1.0000 0.66650  0.03830  0.71240  Biso   1.000  C
  C119     1.0000 0.71920  0.37800  0.81230  Biso   1.000  C
  C120     1.0000 0.66860  0.35530  0.75090  Biso   1.000  C
  C121     1.0000 0.67390  0.95070  0.70540  Biso   1.000  C
  C122     1.0000 0.63620  0.08000  0.68370  Biso   1.000  C
  C123     1.0000 0.71150  0.46700  0.80930  Biso   1.000  C
  H77      1.0000 0.73970  0.35610  0.83460  Biso   1.000  H
  C124     1.0000 0.66360  0.44710  0.74920  Biso   1.000  C
  H78      1.0000 0.65260  0.31780  0.72990  Biso   1.000  H
  C125     1.0000 0.65110  0.90650  0.66990  Biso   1.000  C
  H79      1.0000 0.69440  0.92050  0.72460  Biso   1.000  H
  C126     1.0000 0.61360  0.03040  0.65090  Biso   1.000  C
  H80      1.0000 0.63120  0.14170  0.68670  Biso   1.000  H
  N42      1.0000 0.68480  0.50160  0.77740  Biso   1.000  N
  H81      1.0000 0.72600  0.50570  0.83090  Biso   1.000  H
  H82      1.0000 0.64390  0.47150  0.72660  Biso   1.000  H
  N43      1.0000 0.62180  0.94530  0.64270  Biso   1.000  N
  H83      1.0000 0.65680  0.84580  0.66490  Biso   1.000  H
  H84      1.0000 0.59130  0.05740  0.63330  Biso   1.000  H
  Zn14     1.0000 0.67170  0.63950  0.76940  Biso   1.000  Zn
  Zn15     1.0000 0.58275  0.87485  0.59529  Biso   1.000  Zn
  N44      1.0000 0.63750  0.65530  0.81800  Biso   1.000  N
  I45      1.0000 0.62992  0.65990  0.69280  Biso   1.000  I
  I46      1.0000 0.73327  0.73370  0.79380  Biso   1.000  I
  I47      1.0000 0.52413  0.84650  0.63571  Biso   1.000  I
  I48      1.0000 0.61963  0.76470  0.55501  Biso   1.000  I
  N45      1.0000 0.56670  0.97920  0.55080  Biso   1.000  N
  C127     1.0000 0.64090  0.72460  0.84430  Biso   1.000  C
  C128     1.0000 0.61260  0.59550  0.82730  Biso   1.000  C
  C129     1.0000 0.61710  0.74330  0.87490  Biso   1.000  C
  H85      1.0000 0.66160  0.76520  0.84200  Biso   1.000  H
  C130     1.0000 0.58710  0.61200  0.85660  Biso   1.000  C
  H86      1.0000 0.61200  0.53880  0.81330  Biso   1.000  H
  C131     1.0000 0.58880  0.68850  0.87980  Biso   1.000  C
  H87      1.0000 0.62100  0.79590  0.89260  Biso   1.000  H
  H88      1.0000 0.56800  0.56860  0.86060  Biso   1.000  H
  C132     1.0000 0.56310  0.70360  0.91430  Biso   1.000  C
  N46      1.0000 0.57020  0.77780  0.93920  Biso   1.000  N
  N47      1.0000 0.53420  0.64570  0.91670  Biso   1.000  N
  C133     1.0000 0.54670  0.78920  0.97000  Biso   1.000  C
  C134     1.0000 0.51220  0.66540  0.94720  Biso   1.000  C
  C135     1.0000 0.55230  0.86970  0.99800  Biso   1.000  C
  N48      1.0000 0.51730  0.73430  0.97640  Biso   1.000  N
  C136     1.0000 0.47780  0.60620  0.94990  Biso   1.000  C
  C137     1.0000 0.58460  0.92460  0.99490  Biso   1.000  C
  C138     1.0000 0.52780  0.89360  0.02700  Biso   1.000  C
  C139     1.0000 0.45850  0.56730  0.91040  Biso   1.000  C
  C140     1.0000 0.46270  0.59350  0.98770  Biso   1.000  C
  C141     1.0000 0.58970  0.99770  0.02200  Biso   1.000  C
  H89      1.0000 0.60220  0.91140  0.97470  Biso   1.000  H
  H90      1.0000 0.50540  0.85830  0.02950  Biso   1.000  H
  C142     1.0000 0.53560  0.96820  0.05200  Biso   1.000  C
  C143     1.0000 0.42820  0.51140  0.91310  Biso   1.000  C
  H91      1.0000 0.46640  0.57960  0.88230  Biso   1.000  H
  C144     1.0000 0.43080  0.53690  0.98730  Biso   1.000  C
  H92      1.0000 0.47380  0.62320  0.01460  Biso   1.000  H
  H93      1.0000 0.61160  0.03500  0.02000  Biso   1.000  H
  H94      1.0000 0.51790  0.98410  0.07170  Biso   1.000  H
  H95      1.0000 0.41630  0.48180  0.88640  Biso   1.000  H
  H96      1.0000 0.42070  0.52760  0.01440  Biso   1.000  H
  I49      1.0000 0.88490  0.76960  0.91230  Biso   1.000  I
  I50      1.0000 0.84420  0.91650  0.02600  Biso   1.000  I
  Zn16     1.0000 0.17770  0.13280  0.77570  Biso   1.000  Zn
  I51      1.0000 0.23840  0.21490  0.80910  Biso   1.000  I
  I52      1.0000 0.13730  0.16220  0.69730  Biso   1.000  I
  I53      1.0000 0.03020  0.32600  0.62880  Biso   1.000  I
  I54      1.0000 0.13210  0.27950  0.55560  Biso   1.000  I
  I55      1.0000 0.88210  0.75680  0.92100  Biso   1.000  I
  I56      1.0000 0.84260  0.94000  0.02750  Biso   1.000  I
  I57      1.0000 0.60400  0.72350  0.10180  Biso   1.000  I
  Zn17     1.0000 0.63137  0.59477  0.05314  Biso   1.000  Zn
  N49      1.0000 0.58610  0.50480  0.05000  Biso   1.000  N
  I58      1.0000 0.65180  0.61240  0.98260  Biso   1.000  I
  N50      1.0000 0.67410  0.53200  0.09840  Biso   1.000  N
  C145     1.0000 0.69550  0.57570  0.13270  Biso   1.000  C
  C146     1.0000 0.68150  0.44650  0.09310  Biso   1.000  C
  C147     1.0000 0.72440  0.53520  0.16290  Biso   1.000  C
  H97      1.0000 0.69060  0.63730  0.13630  Biso   1.000  H
  C148     1.0000 0.70970  0.39940  0.12250  Biso   1.000  C
  H98      1.0000 0.66690  0.41590  0.06820  Biso   1.000  H
  C149     1.0000 0.73160  0.44480  0.15820  Biso   1.000  C
  H99      1.0000 0.73930  0.56850  0.18660  Biso   1.000  H
  H100     1.0000 0.71380  0.33770  0.11810  Biso   1.000  H
  C150     1.0000 0.76240  0.40180  0.19030  Biso   1.000  C
  N51      1.0000 0.76850  0.31230  0.18580  Biso   1.000  N
  N52      1.0000 0.78200  0.45150  0.22340  Biso   1.000  N
  C151     1.0000 0.79660  0.27950  0.21530  Biso   1.000  C
  C152     1.0000 0.81040  0.41010  0.25080  Biso   1.000  C
  C153     1.0000 0.80290  0.18010  0.21680  Biso   1.000  C
  N53      1.0000 0.81930  0.32370  0.24760  Biso   1.000  N
  C154     1.0000 0.83350  0.46170  0.28760  Biso   1.000  C
  C155     1.0000 0.78080  0.12200  0.18770  Biso   1.000  C
  C156     1.0000 0.83140  0.14470  0.24910  Biso   1.000  C
  C157     1.0000 0.82610  0.54930  0.29460  Biso   1.000  C
  C158     1.0000 0.86380  0.42000  0.31630  Biso   1.000  C
  C159     1.0000 0.78850  0.03300  0.19070  Biso   1.000  C
  H101     1.0000 0.76030  0.14390  0.16540  Biso   1.000  H
  C160     1.0000 0.83640  0.05290  0.25080  Biso   1.000  C
  H102     1.0000 0.84740  0.18220  0.27010  Biso   1.000  H
  C161     1.0000 0.84890  0.59350  0.33010  Biso   1.000  C
  H103     1.0000 0.80560  0.57950  0.27540  Biso   1.000  H
  C162     1.0000 0.88640  0.46960  0.34910  Biso   1.000  C
  H104     1.0000 0.86880  0.35830  0.31330  Biso   1.000  H
  N54      1.0000 0.81520  0.99840  0.22260  Biso   1.000  N
  H105     1.0000 0.77400  0.99430  0.16910  Biso   1.000  H
  H106     1.0000 0.85610  0.02850  0.27340  Biso   1.000  H
  N55      1.0000 0.87820  0.55470  0.35730  Biso   1.000  N
  H107     1.0000 0.84320  0.65420  0.33510  Biso   1.000  H
  H108     1.0000 0.90870  0.44260  0.36670  Biso   1.000  H
  Zn18     1.0000 0.82830  0.86050  0.23060  Biso   1.000  Zn
  Zn19     1.0000 0.91725  0.62515  0.40471  Biso   1.000  Zn
  N56      1.0000 0.86250  0.84470  0.18200  Biso   1.000  N
  I59      1.0000 0.87008  0.84010  0.30720  Biso   1.000  I
  I60      1.0000 0.76673  0.76630  0.20620  Biso   1.000  I
  I61      1.0000 0.97587  0.65350  0.36429  Biso   1.000  I
  I62      1.0000 0.88037  0.73530  0.44499  Biso   1.000  I
  N57      1.0000 0.93330  0.52080  0.44920  Biso   1.000  N
  C163     1.0000 0.85910  0.77540  0.15570  Biso   1.000  C
  C164     1.0000 0.88740  0.90450  0.17270  Biso   1.000  C
  C165     1.0000 0.88290  0.75670  0.12510  Biso   1.000  C
  H109     1.0000 0.83840  0.73480  0.15800  Biso   1.000  H
  C166     1.0000 0.91290  0.88800  0.14340  Biso   1.000  C
  H110     1.0000 0.88800  0.96120  0.18670  Biso   1.000  H
  C167     1.0000 0.91120  0.81150  0.12020  Biso   1.000  C
  H111     1.0000 0.87900  0.70410  0.10740  Biso   1.000  H
  H112     1.0000 0.93200  0.93140  0.13940  Biso   1.000  H
  C168     1.0000 0.93690  0.79640  0.08570  Biso   1.000  C
  N58      1.0000 0.92980  0.72220  0.06080  Biso   1.000  N
  N59      1.0000 0.96580  0.85430  0.08330  Biso   1.000  N
  C169     1.0000 0.95330  0.71080  0.03000  Biso   1.000  C
  C170     1.0000 0.98780  0.83460  0.05280  Biso   1.000  C
  C171     1.0000 0.94770  0.63030  0.00200  Biso   1.000  C
  N60      1.0000 0.98270  0.76570  0.02360  Biso   1.000  N
  C172     1.0000 0.02220  0.89380  0.05010  Biso   1.000  C
  C173     1.0000 0.91540  0.57540  0.00510  Biso   1.000  C
  C174     1.0000 0.97220  0.60640  0.97300  Biso   1.000  C
  C175     1.0000 0.04150  0.93270  0.08960  Biso   1.000  C
  C176     1.0000 0.03730  0.90650  0.01230  Biso   1.000  C
  C177     1.0000 0.91030  0.50230  0.97800  Biso   1.000  C
  H113     1.0000 0.89780  0.58860  0.02530  Biso   1.000  H
  H114     1.0000 0.99460  0.64170  0.97050  Biso   1.000  H
  C178     1.0000 0.96440  0.53180  0.94800  Biso   1.000  C
  C179     1.0000 0.07180  0.98860  0.08690  Biso   1.000  C
  H115     1.0000 0.03360  0.92040  0.11770  Biso   1.000  H
  C180     1.0000 0.06920  0.96310  0.01270  Biso   1.000  C
  H116     1.0000 0.02620  0.87680  0.98540  Biso   1.000  H
  H117     1.0000 0.88840  0.46500  0.98000  Biso   1.000  H
  H118     1.0000 0.98210  0.51590  0.92830  Biso   1.000  H
  H119     1.0000 0.08370  0.01820  0.11360  Biso   1.000  H
  H120     1.0000 0.07930  0.97240  0.98560  Biso   1.000  H
  I63      1.0000 0.61510  0.73040  0.08770  Biso   1.000  I
  I64      1.0000 0.65580  0.58350  0.97400  Biso   1.000  I
  Zn20     1.0000 0.32230  0.36720  0.22430  Biso   1.000  Zn
  I65      1.0000 0.26160  0.28510  0.19090  Biso   1.000  I
  I66      1.0000 0.36270  0.33780  0.30270  Biso   1.000  I
  I67      1.0000 0.46980  0.17400  0.37120  Biso   1.000  I
  I68      1.0000 0.36790  0.22050  0.44440  Biso   1.000  I
  I69      1.0000 0.61790  0.74320  0.07900  Biso   1.000  I
  I70      1.0000 0.65740  0.56000  0.97250  Biso   1.000  I
  I71      1.0000 0.10400  0.22350  0.10180  Biso   1.000  I
  Zn21     1.0000 0.13137  0.09477  0.05314  Biso   1.000  Zn
  N61      1.0000 0.08610  0.00480  0.05000  Biso   1.000  N
  I72      1.0000 0.15180  0.11240  0.98260  Biso   1.000  I
  N62      1.0000 0.17410  0.03200  0.09840  Biso   1.000  N
  C181     1.0000 0.19550  0.07570  0.13270  Biso   1.000  C
  C182     1.0000 0.18150  0.94650  0.09310  Biso   1.000  C
  C183     1.0000 0.22440  0.03520  0.16290  Biso   1.000  C
  H121     1.0000 0.19060  0.13730  0.13630  Biso   1.000  H
  C184     1.0000 0.20970  0.89940  0.12250  Biso   1.000  C
  H122     1.0000 0.16690  0.91590  0.06820  Biso   1.000  H
  C185     1.0000 0.23160  0.94480  0.15820  Biso   1.000  C
  H123     1.0000 0.23930  0.06850  0.18660  Biso   1.000  H
  H124     1.0000 0.21380  0.83770  0.11810  Biso   1.000  H
  C186     1.0000 0.26240  0.90180  0.19030  Biso   1.000  C
  N63      1.0000 0.26850  0.81230  0.18580  Biso   1.000  N
  N64      1.0000 0.28200  0.95150  0.22340  Biso   1.000  N
  C187     1.0000 0.29660  0.77950  0.21530  Biso   1.000  C
  C188     1.0000 0.31040  0.91010  0.25080  Biso   1.000  C
  C189     1.0000 0.30290  0.68010  0.21680  Biso   1.000  C
  N65      1.0000 0.31930  0.82370  0.24760  Biso   1.000  N
  C190     1.0000 0.33350  0.96170  0.28760  Biso   1.000  C
  C191     1.0000 0.28080  0.62200  0.18770  Biso   1.000  C
  C192     1.0000 0.33140  0.64470  0.24910  Biso   1.000  C
  C193     1.0000 0.32610  0.04930  0.29460  Biso   1.000  C
  C194     1.0000 0.36380  0.92000  0.31630  Biso   1.000  C
  C195     1.0000 0.28850  0.53300  0.19070  Biso   1.000  C
  H125     1.0000 0.26030  0.64390  0.16540  Biso   1.000  H
  C196     1.0000 0.33640  0.55290  0.25080  Biso   1.000  C
  H126     1.0000 0.34740  0.68220  0.27010  Biso   1.000  H
  C197     1.0000 0.34890  0.09350  0.33010  Biso   1.000  C
  H127     1.0000 0.30560  0.07950  0.27540  Biso   1.000  H
  C198     1.0000 0.38640  0.96960  0.34910  Biso   1.000  C
  H128     1.0000 0.36880  0.85830  0.31330  Biso   1.000  H
  N66      1.0000 0.31520  0.49840  0.22260  Biso   1.000  N
  H129     1.0000 0.27400  0.49430  0.16910  Biso   1.000  H
  H130     1.0000 0.35610  0.52850  0.27340  Biso   1.000  H
  N67      1.0000 0.37820  0.05470  0.35730  Biso   1.000  N
  H131     1.0000 0.34320  0.15420  0.33510  Biso   1.000  H
  H132     1.0000 0.40870  0.94260  0.36670  Biso   1.000  H
  Zn22     1.0000 0.32830  0.36050  0.23060  Biso   1.000  Zn
  Zn23     1.0000 0.41725  0.12515  0.40471  Biso   1.000  Zn
  N68      1.0000 0.36250  0.34470  0.18200  Biso   1.000  N
  I73      1.0000 0.37008  0.34010  0.30720  Biso   1.000  I
  I74      1.0000 0.26673  0.26630  0.20620  Biso   1.000  I
  I75      1.0000 0.47587  0.15350  0.36429  Biso   1.000  I
  I76      1.0000 0.38037  0.23530  0.44499  Biso   1.000  I
  N69      1.0000 0.43330  0.02080  0.44920  Biso   1.000  N
  C199     1.0000 0.35910  0.27540  0.15570  Biso   1.000  C
  C200     1.0000 0.38740  0.40450  0.17270  Biso   1.000  C
  C201     1.0000 0.38290  0.25670  0.12510  Biso   1.000  C
  H133     1.0000 0.33840  0.23480  0.15800  Biso   1.000  H
  C202     1.0000 0.41290  0.38800  0.14340  Biso   1.000  C
  H134     1.0000 0.38800  0.46120  0.18670  Biso   1.000  H
  C203     1.0000 0.41120  0.31150  0.12020  Biso   1.000  C
  H135     1.0000 0.37900  0.20410  0.10740  Biso   1.000  H
  H136     1.0000 0.43200  0.43140  0.13940  Biso   1.000  H
  C204     1.0000 0.43690  0.29640  0.08570  Biso   1.000  C
  N70      1.0000 0.42980  0.22220  0.06080  Biso   1.000  N
  N71      1.0000 0.46580  0.35430  0.08330  Biso   1.000  N
  C205     1.0000 0.45330  0.21080  0.03000  Biso   1.000  C
  C206     1.0000 0.48780  0.33460  0.05280  Biso   1.000  C
  C207     1.0000 0.44770  0.13030  0.00200  Biso   1.000  C
  N72      1.0000 0.48270  0.26570  0.02360  Biso   1.000  N
  C208     1.0000 0.52220  0.39380  0.05010  Biso   1.000  C
  C209     1.0000 0.41540  0.07540  0.00510  Biso   1.000  C
  C210     1.0000 0.47220  0.10640  0.97300  Biso   1.000  C
  C211     1.0000 0.54150  0.43270  0.08960  Biso   1.000  C
  C212     1.0000 0.53730  0.40650  0.01230  Biso   1.000  C
  C213     1.0000 0.41030  0.00230  0.97800  Biso   1.000  C
  H137     1.0000 0.39780  0.08860  0.02530  Biso   1.000  H
  H138     1.0000 0.49460  0.14170  0.97050  Biso   1.000  H
  C214     1.0000 0.46440  0.03180  0.94800  Biso   1.000  C
  C215     1.0000 0.57180  0.48860  0.08690  Biso   1.000  C
  H139     1.0000 0.53360  0.42040  0.11770  Biso   1.000  H
  C216     1.0000 0.56920  0.46310  0.01270  Biso   1.000  C
  H140     1.0000 0.52620  0.37680  0.98540  Biso   1.000  H
  H141     1.0000 0.38840  0.96500  0.98000  Biso   1.000  H
  H142     1.0000 0.48210  0.01590  0.92830  Biso   1.000  H
  H143     1.0000 0.58370  0.51820  0.11360  Biso   1.000  H
  H144     1.0000 0.57930  0.47240  0.98560  Biso   1.000  H
  I77      1.0000 0.11510  0.23040  0.08770  Biso   1.000  I
  I78      1.0000 0.15580  0.08350  0.97400  Biso   1.000  I
  Zn24     1.0000 0.82230  0.86720  0.22430  Biso   1.000  Zn
  I79      1.0000 0.76160  0.78510  0.19090  Biso   1.000  I
  I80      1.0000 0.86270  0.83780  0.30270  Biso   1.000  I
  I81      1.0000 0.96980  0.67400  0.37120  Biso   1.000  I
  I82      1.0000 0.86790  0.72050  0.44440  Biso   1.000  I
  I83      1.0000 0.11790  0.24320  0.07900  Biso   1.000  I
  I84      1.0000 0.15740  0.06000  0.97250  Biso   1.000  I
  I85      1.0000 0.60400  0.27650  0.60180  Biso   1.000  I
  Zn25     1.0000 0.63137  0.40523  0.55314  Biso   1.000  Zn
  N73      1.0000 0.58610  0.49520  0.55000  Biso   1.000  N
  I86      1.0000 0.65180  0.38760  0.48260  Biso   1.000  I
  N74      1.0000 0.67410  0.46800  0.59840  Biso   1.000  N
  C217     1.0000 0.69550  0.42430  0.63270  Biso   1.000  C
  C218     1.0000 0.68150  0.55350  0.59310  Biso   1.000  C
  C219     1.0000 0.72440  0.46480  0.66290  Biso   1.000  C
  H145     1.0000 0.69060  0.36270  0.63630  Biso   1.000  H
  C220     1.0000 0.70970  0.60060  0.62250  Biso   1.000  C
  H146     1.0000 0.66690  0.58410  0.56820  Biso   1.000  H
  C221     1.0000 0.73160  0.55520  0.65820  Biso   1.000  C
  H147     1.0000 0.73930  0.43150  0.68660  Biso   1.000  H
  H148     1.0000 0.71380  0.66230  0.61810  Biso   1.000  H
  C222     1.0000 0.76240  0.59820  0.69030  Biso   1.000  C
  N75      1.0000 0.76850  0.68770  0.68580  Biso   1.000  N
  N76      1.0000 0.78200  0.54850  0.72340  Biso   1.000  N
  C223     1.0000 0.79660  0.72050  0.71530  Biso   1.000  C
  C224     1.0000 0.81040  0.58990  0.75080  Biso   1.000  C
  C225     1.0000 0.80290  0.81990  0.71680  Biso   1.000  C
  N77      1.0000 0.81930  0.67630  0.74760  Biso   1.000  N
  C226     1.0000 0.83350  0.53830  0.78760  Biso   1.000  C
  C227     1.0000 0.78080  0.87800  0.68770  Biso   1.000  C
  C228     1.0000 0.83140  0.85530  0.74910  Biso   1.000  C
  C229     1.0000 0.82610  0.45070  0.79460  Biso   1.000  C
  C230     1.0000 0.86380  0.58000  0.81630  Biso   1.000  C
  C231     1.0000 0.78850  0.96700  0.69070  Biso   1.000  C
  H149     1.0000 0.76030  0.85610  0.66540  Biso   1.000  H
  C232     1.0000 0.83640  0.94710  0.75080  Biso   1.000  C
  H150     1.0000 0.84740  0.81780  0.77010  Biso   1.000  H
  C233     1.0000 0.84890  0.40650  0.83010  Biso   1.000  C
  H151     1.0000 0.80560  0.42050  0.77540  Biso   1.000  H
  C234     1.0000 0.88640  0.53040  0.84910  Biso   1.000  C
  H152     1.0000 0.86880  0.64170  0.81330  Biso   1.000  H
  N78      1.0000 0.81520  0.00160  0.72260  Biso   1.000  N
  H153     1.0000 0.77400  0.00570  0.66910  Biso   1.000  H
  H154     1.0000 0.85610  0.97150  0.77340  Biso   1.000  H
  N79      1.0000 0.87820  0.44530  0.85730  Biso   1.000  N
  H155     1.0000 0.84320  0.34580  0.83510  Biso   1.000  H
  H156     1.0000 0.90870  0.55740  0.86670  Biso   1.000  H
  Zn26     1.0000 0.82830  0.13950  0.73060  Biso   1.000  Zn
  Zn27     1.0000 0.91725  0.37485  0.90471  Biso   1.000  Zn
  N80      1.0000 0.86250  0.15530  0.68200  Biso   1.000  N
  I87      1.0000 0.87008  0.15990  0.80720  Biso   1.000  I
  I88      1.0000 0.76673  0.23370  0.70620  Biso   1.000  I
  I89      1.0000 0.97587  0.34650  0.86429  Biso   1.000  I
  I90      1.0000 0.88037  0.26470  0.94499  Biso   1.000  I
  N81      1.0000 0.93330  0.47920  0.94920  Biso   1.000  N
  C235     1.0000 0.85910  0.22460  0.65570  Biso   1.000  C
  C236     1.0000 0.88740  0.09550  0.67270  Biso   1.000  C
  C237     1.0000 0.88290  0.24330  0.62510  Biso   1.000  C
  H157     1.0000 0.83840  0.26520  0.65800  Biso   1.000  H
  C238     1.0000 0.91290  0.11200  0.64340  Biso   1.000  C
  H158     1.0000 0.88800  0.03880  0.68670  Biso   1.000  H
  C239     1.0000 0.91120  0.18850  0.62020  Biso   1.000  C
  H159     1.0000 0.87900  0.29590  0.60740  Biso   1.000  H
  H160     1.0000 0.93200  0.06860  0.63940  Biso   1.000  H
  C240     1.0000 0.93690  0.20360  0.58570  Biso   1.000  C
  N82      1.0000 0.92980  0.27780  0.56080  Biso   1.000  N
  N83      1.0000 0.96580  0.14570  0.58330  Biso   1.000  N
  C241     1.0000 0.95330  0.28920  0.53000  Biso   1.000  C
  C242     1.0000 0.98780  0.16540  0.55280  Biso   1.000  C
  C243     1.0000 0.94770  0.36970  0.50200  Biso   1.000  C
  N84      1.0000 0.98270  0.23430  0.52360  Biso   1.000  N
  C244     1.0000 0.02220  0.10620  0.55010  Biso   1.000  C
  C245     1.0000 0.91540  0.42460  0.50510  Biso   1.000  C
  C246     1.0000 0.97220  0.39360  0.47300  Biso   1.000  C
  C247     1.0000 0.04150  0.06730  0.58960  Biso   1.000  C
  C248     1.0000 0.03730  0.09350  0.51230  Biso   1.000  C
  C249     1.0000 0.91030  0.49770  0.47800  Biso   1.000  C
  H161     1.0000 0.89780  0.41140  0.52530  Biso   1.000  H
  H162     1.0000 0.99460  0.35830  0.47050  Biso   1.000  H
  C250     1.0000 0.96440  0.46820  0.44800  Biso   1.000  C
  C251     1.0000 0.07180  0.01140  0.58690  Biso   1.000  C
  H163     1.0000 0.03360  0.07960  0.61770  Biso   1.000  H
  C252     1.0000 0.06920  0.03690  0.51270  Biso   1.000  C
  H164     1.0000 0.02620  0.12320  0.48540  Biso   1.000  H
  H165     1.0000 0.88840  0.53500  0.48000  Biso   1.000  H
  H166     1.0000 0.98210  0.48410  0.42830  Biso   1.000  H
  H167     1.0000 0.08370  0.98180  0.61360  Biso   1.000  H
  H168     1.0000 0.07930  0.02760  0.48560  Biso   1.000  H
  I91      1.0000 0.61510  0.26960  0.58770  Biso   1.000  I
  I92      1.0000 0.65580  0.41650  0.47400  Biso   1.000  I
  Zn28     1.0000 0.32230  0.63280  0.72430  Biso   1.000  Zn
  I93      1.0000 0.26160  0.71490  0.69090  Biso   1.000  I
  I94      1.0000 0.36270  0.66220  0.80270  Biso   1.000  I
  I95      1.0000 0.46980  0.82600  0.87120  Biso   1.000  I
  I96      1.0000 0.36790  0.77950  0.94440  Biso   1.000  I
  I97      1.0000 0.61790  0.25680  0.57900  Biso   1.000  I
  I98      1.0000 0.65740  0.44000  0.47250  Biso   1.000  I
  I99      1.0000 0.10400  0.77650  0.60180  Biso   1.000  I
  Zn29     1.0000 0.13137  0.90523  0.55314  Biso   1.000  Zn
  N85      1.0000 0.08610  0.99520  0.55000  Biso   1.000  N
  I100     1.0000 0.15180  0.88760  0.48260  Biso   1.000  I
  N86      1.0000 0.17410  0.96800  0.59840  Biso   1.000  N
  C253     1.0000 0.19550  0.92430  0.63270  Biso   1.000  C
  C254     1.0000 0.18150  0.05350  0.59310  Biso   1.000  C
  C255     1.0000 0.22440  0.96480  0.66290  Biso   1.000  C
  H169     1.0000 0.19060  0.86270  0.63630  Biso   1.000  H
  C256     1.0000 0.20970  0.10060  0.62250  Biso   1.000  C
  H170     1.0000 0.16690  0.08410  0.56820  Biso   1.000  H
  C257     1.0000 0.23160  0.05520  0.65820  Biso   1.000  C
  H171     1.0000 0.23930  0.93150  0.68660  Biso   1.000  H
  H172     1.0000 0.21380  0.16230  0.61810  Biso   1.000  H
  C258     1.0000 0.26240  0.09820  0.69030  Biso   1.000  C
  N87      1.0000 0.26850  0.18770  0.68580  Biso   1.000  N
  N88      1.0000 0.28200  0.04850  0.72340  Biso   1.000  N
  C259     1.0000 0.29660  0.22050  0.71530  Biso   1.000  C
  C260     1.0000 0.31040  0.08990  0.75080  Biso   1.000  C
  C261     1.0000 0.30290  0.31990  0.71680  Biso   1.000  C
  N89      1.0000 0.31930  0.17630  0.74760  Biso   1.000  N
  C262     1.0000 0.33350  0.03830  0.78760  Biso   1.000  C
  C263     1.0000 0.28080  0.37800  0.68770  Biso   1.000  C
  C264     1.0000 0.33140  0.35530  0.74910  Biso   1.000  C
  C265     1.0000 0.32610  0.95070  0.79460  Biso   1.000  C
  C266     1.0000 0.36380  0.08000  0.81630  Biso   1.000  C
  C267     1.0000 0.28850  0.46700  0.69070  Biso   1.000  C
  H173     1.0000 0.26030  0.35610  0.66540  Biso   1.000  H
  C268     1.0000 0.33640  0.44710  0.75080  Biso   1.000  C
  H174     1.0000 0.34740  0.31780  0.77010  Biso   1.000  H
  C269     1.0000 0.34890  0.90650  0.83010  Biso   1.000  C
  H175     1.0000 0.30560  0.92050  0.77540  Biso   1.000  H
  C270     1.0000 0.38640  0.03040  0.84910  Biso   1.000  C
  H176     1.0000 0.36880  0.14170  0.81330  Biso   1.000  H
  N90      1.0000 0.31520  0.50160  0.72260  Biso   1.000  N
  H177     1.0000 0.27400  0.50570  0.66910  Biso   1.000  H
  H178     1.0000 0.35610  0.47150  0.77340  Biso   1.000  H
  N91      1.0000 0.37820  0.94530  0.85730  Biso   1.000  N
  H179     1.0000 0.34320  0.84580  0.83510  Biso   1.000  H
  H180     1.0000 0.40870  0.05740  0.86670  Biso   1.000  H
  Zn30     1.0000 0.32830  0.63950  0.73060  Biso   1.000  Zn
  Zn31     1.0000 0.41725  0.87485  0.90471  Biso   1.000  Zn
  N92      1.0000 0.36250  0.65530  0.68200  Biso   1.000  N
  I101     1.0000 0.37008  0.65990  0.80720  Biso   1.000  I
  I102     1.0000 0.26673  0.73370  0.70620  Biso   1.000  I
  I103     1.0000 0.47587  0.84650  0.86429  Biso   1.000  I
  I104     1.0000 0.38037  0.76470  0.94499  Biso   1.000  I
  N93      1.0000 0.43330  0.97920  0.94920  Biso   1.000  N
  C271     1.0000 0.35910  0.72460  0.65570  Biso   1.000  C
  C272     1.0000 0.38740  0.59550  0.67270  Biso   1.000  C
  C273     1.0000 0.38290  0.74330  0.62510  Biso   1.000  C
  H181     1.0000 0.33840  0.76520  0.65800  Biso   1.000  H
  C274     1.0000 0.41290  0.61200  0.64340  Biso   1.000  C
  H182     1.0000 0.38800  0.53880  0.68670  Biso   1.000  H
  C275     1.0000 0.41120  0.68850  0.62020  Biso   1.000  C
  H183     1.0000 0.37900  0.79590  0.60740  Biso   1.000  H
  H184     1.0000 0.43200  0.56860  0.63940  Biso   1.000  H
  C276     1.0000 0.43690  0.70360  0.58570  Biso   1.000  C
  N94      1.0000 0.42980  0.77780  0.56080  Biso   1.000  N
  N95      1.0000 0.46580  0.64570  0.58330  Biso   1.000  N
  C277     1.0000 0.45330  0.78920  0.53000  Biso   1.000  C
  C278     1.0000 0.48780  0.66540  0.55280  Biso   1.000  C
  C279     1.0000 0.44770  0.86970  0.50200  Biso   1.000  C
  N96      1.0000 0.48270  0.73430  0.52360  Biso   1.000  N
  C280     1.0000 0.52220  0.60620  0.55010  Biso   1.000  C
  C281     1.0000 0.41540  0.92460  0.50510  Biso   1.000  C
  C282     1.0000 0.47220  0.89360  0.47300  Biso   1.000  C
  C283     1.0000 0.54150  0.56730  0.58960  Biso   1.000  C
  C284     1.0000 0.53730  0.59350  0.51230  Biso   1.000  C
  C285     1.0000 0.41030  0.99770  0.47800  Biso   1.000  C
  H185     1.0000 0.39780  0.91140  0.52530  Biso   1.000  H
  H186     1.0000 0.49460  0.85830  0.47050  Biso   1.000  H
  C286     1.0000 0.46440  0.96820  0.44800  Biso   1.000  C
  C287     1.0000 0.57180  0.51140  0.58690  Biso   1.000  C
  H187     1.0000 0.53360  0.57960  0.61770  Biso   1.000  H
  C288     1.0000 0.56920  0.53690  0.51270  Biso   1.000  C
  H188     1.0000 0.52620  0.62320  0.48540  Biso   1.000  H
  H189     1.0000 0.38840  0.03500  0.48000  Biso   1.000  H
  H190     1.0000 0.48210  0.98410  0.42830  Biso   1.000  H
  H191     1.0000 0.58370  0.48180  0.61360  Biso   1.000  H
  H192     1.0000 0.57930  0.52760  0.48560  Biso   1.000  H
  I105     1.0000 0.11510  0.76960  0.58770  Biso   1.000  I
  I106     1.0000 0.15580  0.91650  0.47400  Biso   1.000  I
  Zn32     1.0000 0.82230  0.13280  0.72430  Biso   1.000  Zn
  I107     1.0000 0.76160  0.21490  0.69090  Biso   1.000  I
  I108     1.0000 0.86270  0.16220  0.80270  Biso   1.000  I
  I109     1.0000 0.96980  0.32600  0.87120  Biso   1.000  I
  I110     1.0000 0.86790  0.27950  0.94440  Biso   1.000  I
  I111     1.0000 0.11790  0.75680  0.57900  Biso   1.000  I
  I112     1.0000 0.15740  0.94000  0.47250  Biso   1.000  I
  C289     1.0000 0.55730  0.78650  0.24160  Biso   1.000  C
  C290     1.0000 0.56690  0.70340  0.26260  Biso   1.000  C
  H193     1.0000 0.55560  0.65090  0.24840  Biso   1.000  H
  C291     1.0000 0.59200  0.69630  0.30300  Biso   1.000  C
  O1       1.0000 0.57210  0.85900  0.26050  Biso   1.000  O
  C292     1.0000 0.61020  0.78270  0.32340  Biso   1.000  C
  C293     1.0000 0.59830  0.85830  0.29950  Biso   1.000  C
  C294     1.0000 0.60970  0.94360  0.31210  Biso   1.000  C
  C295     1.0000 0.63950  0.94500  0.35800  Biso   1.000  C
  C296     1.0000 0.65040  0.87270  0.37780  Biso   1.000  C
  C297     1.0000 0.63800  0.78680  0.36410  Biso   1.000  C
  C298     1.0000 0.53090  0.79580  0.20000  Biso   1.000  C
  C299     1.0000 0.51620  0.88240  0.18380  Biso   1.000  C
  H194     1.0000 0.52630  0.93380  0.20010  Biso   1.000  H
  C300     1.0000 0.48890  0.89300  0.14650  Biso   1.000  C
  H195     1.0000 0.47910  0.95090  0.13830  Biso   1.000  H
  C301     1.0000 0.47450  0.81900  0.11940  Biso   1.000  C
  C302     1.0000 0.48980  0.73470  0.13390  Biso   1.000  C
  C303     1.0000 0.51410  0.72660  0.17240  Biso   1.000  C
  H196     1.0000 0.52090  0.66780  0.18230  Biso   1.000  H
  O2       1.0000 0.59990  0.62110  0.32150  Biso   1.000  O
  O3       1.0000 0.60410  0.01580  0.29100  Biso   1.000  O
  C304     1.0000 0.56520  0.05900  0.29020  Biso   1.000  C
  H197     1.0000 0.56400  0.11420  0.27300  Biso   1.000  H
  H198     1.0000 0.54430  0.01840  0.27610  Biso   1.000  H
  H199     1.0000 0.56150  0.07170  0.32110  Biso   1.000  H
  O4       1.0000 0.64790  0.03470  0.37130  Biso   1.000  O
  C305     1.0000 0.68490  0.06110  0.37720  Biso   1.000  C
  H200     1.0000 0.68640  0.12380  0.38630  Biso   1.000  H
  H201     1.0000 0.70060  0.02490  0.40070  Biso   1.000  H
  H202     1.0000 0.69520  0.05430  0.34900  Biso   1.000  H
  O5       1.0000 0.67620  0.88090  0.41860  Biso   1.000  O
  C306     1.0000 0.70880  0.82200  0.43370  Biso   1.000  C
  H203     1.0000 0.72250  0.84150  0.46320  Biso   1.000  H
  H204     1.0000 0.69900  0.76130  0.43590  Biso   1.000  H
  H205     1.0000 0.72710  0.82330  0.41210  Biso   1.000  H
  O6       1.0000 0.65070  0.71300  0.38520  Biso   1.000  O
  C307     1.0000 0.63010  0.67200  0.41770  Biso   1.000  C
  H206     1.0000 0.64410  0.61830  0.42960  Biso   1.000  H
  H207     1.0000 0.62880  0.71400  0.44230  Biso   1.000  H
  H208     1.0000 0.60330  0.65660  0.40320  Biso   1.000  H
  O7       1.0000 0.44900  0.82510  0.08240  Biso   1.000  O
  C308     1.0000 0.43190  0.91010  0.06880  Biso   1.000  C
  H209     1.0000 0.41350  0.90350  0.04050  Biso   1.000  H
  H210     1.0000 0.41790  0.93280  0.09220  Biso   1.000  H
  H211     1.0000 0.45280  0.95200  0.06460  Biso   1.000  H
  O8       1.0000 0.47460  0.66990  0.10410  Biso   1.000  O
  C309     1.0000 0.48130  0.58650  0.11630  Biso   1.000  C
  H212     1.0000 0.46900  0.54710  0.09210  Biso   1.000  H
  H213     1.0000 0.50980  0.57570  0.12240  Biso   1.000  H
  H214     1.0000 0.47030  0.57470  0.14360  Biso   1.000  H
  C310     1.0000 0.59800  0.07200  0.27200  Biso   1.000  C
  H215     1.0000 0.60130  0.03150  0.24740  Biso   1.000  H
  H216     1.0000 0.59590  0.13350  0.26010  Biso   1.000  H
  C311     1.0000 0.63450  0.06600  0.30800  Biso   1.000  C
  H217     1.0000 0.63660  0.12180  0.32610  Biso   1.000  H
  H218     1.0000 0.65780  0.06330  0.29300  Biso   1.000  H
  C312     1.0000 0.63580  0.98700  0.34000  Biso   1.000  C
  H219     1.0000 0.65880  0.99240  0.36470  Biso   1.000  H
  H220     1.0000 0.63830  0.93090  0.32390  Biso   1.000  H
  C313     1.0000 0.59700  0.98700  0.36000  Biso   1.000  C
  H221     1.0000 0.59790  0.94010  0.38360  Biso   1.000  H
  H222     1.0000 0.59310  0.04530  0.37410  Biso   1.000  H
  C314     1.0000 0.56400  0.96800  0.32000  Biso   1.000  C
  H223     1.0000 0.56970  0.91420  0.30400  Biso   1.000  H
  H224     1.0000 0.53850  0.95800  0.33150  Biso   1.000  H
  C315     1.0000 0.55960  0.04900  0.28900  Biso   1.000  C
  H225     1.0000 0.53910  0.03670  0.26220  Biso   1.000  H
  H226     1.0000 0.55090  0.10120  0.30450  Biso   1.000  H
  C316     1.0000 0.52600  0.80100  0.16300  Biso   1.000  C
  H227     1.0000 0.54040  0.84240  0.14660  Biso   1.000  H
  H228     1.0000 0.49710  0.81000  0.15210  Biso   1.000  H
  C317     1.0000 0.53700  0.70400  0.15300  Biso   1.000  C
  H229     1.0000 0.56450  0.70240  0.14870  Biso   1.000  H
  H230     1.0000 0.52000  0.68320  0.12530  Biso   1.000  H
  C318     1.0000 0.53100  0.64300  0.19200  Biso   1.000  C
  H231     1.0000 0.53440  0.57990  0.18380  Biso   1.000  H
  H232     1.0000 0.50470  0.65050  0.19990  Biso   1.000  H
  C319     1.0000 0.56300  0.66600  0.23400  Biso   1.000  C
  H233     1.0000 0.58700  0.63200  0.23230  Biso   1.000  H
  H234     1.0000 0.55280  0.64780  0.26150  Biso   1.000  H
  C320     1.0000 0.57100  0.76600  0.23500  Biso   1.000  C
  H235     1.0000 0.57930  0.78520  0.26680  Biso   1.000  H
  H236     1.0000 0.59360  0.77820  0.21900  Biso   1.000  H
  C321     1.0000 0.53500  0.81800  0.21300  Biso   1.000  C
  H237     1.0000 0.54010  0.88290  0.21860  Biso   1.000  H
  H238     1.0000 0.51240  0.80150  0.22760  Biso   1.000  H
  C322     1.0000 0.65500  0.70800  0.43100  Biso   1.000  C
  H239     1.0000 0.67710  0.75110  0.43750  Biso   1.000  H
  H240     1.0000 0.65530  0.67000  0.45780  Biso   1.000  H
  C323     1.0000 0.66000  0.65000  0.39000  Biso   1.000  C
  H241     1.0000 0.65900  0.58630  0.39790  Biso   1.000  H
  H242     1.0000 0.68630  0.66180  0.38150  Biso   1.000  H
  C324     1.0000 0.62700  0.67400  0.35100  Biso   1.000  C
  H243     1.0000 0.62680  0.73860  0.34550  Biso   1.000  H
  H244     1.0000 0.63190  0.64340  0.32310  Biso   1.000  H
  C325     1.0000 0.58800  0.64300  0.36300  Biso   1.000  C
  H245     1.0000 0.58770  0.57820  0.36770  Biso   1.000  H
  H246     1.0000 0.56590  0.65790  0.33790  Biso   1.000  H
  C326     1.0000 0.58100  0.69200  0.40600  Biso   1.000  C
  H247     1.0000 0.55600  0.72480  0.40080  Biso   1.000  H
  H248     1.0000 0.58060  0.64860  0.43060  Biso   1.000  H
  C327     1.0000 0.61600  0.75800  0.42000  Biso   1.000  C
  H249     1.0000 0.61100  0.79270  0.44600  Biso   1.000  H
  H250     1.0000 0.61670  0.79970  0.39450  Biso   1.000  H
  C328     1.0000 0.44270  0.78650  0.25840  Biso   1.000  C
  C329     1.0000 0.43310  0.70340  0.23740  Biso   1.000  C
  H251     1.0000 0.44440  0.65090  0.25160  Biso   1.000  H
  C330     1.0000 0.40800  0.69630  0.19700  Biso   1.000  C
  O9       1.0000 0.42790  0.85900  0.23950  Biso   1.000  O
  C331     1.0000 0.38980  0.78270  0.17660  Biso   1.000  C
  C332     1.0000 0.40170  0.85830  0.20050  Biso   1.000  C
  C333     1.0000 0.39030  0.94360  0.18790  Biso   1.000  C
  C334     1.0000 0.36050  0.94500  0.14200  Biso   1.000  C
  C335     1.0000 0.34960  0.87270  0.12220  Biso   1.000  C
  C336     1.0000 0.36200  0.78680  0.13590  Biso   1.000  C
  C337     1.0000 0.46910  0.79580  0.30000  Biso   1.000  C
  C338     1.0000 0.48380  0.88240  0.31620  Biso   1.000  C
  H252     1.0000 0.47370  0.93380  0.29990  Biso   1.000  H
  C339     1.0000 0.51110  0.89300  0.35350  Biso   1.000  C
  H253     1.0000 0.52090  0.95090  0.36170  Biso   1.000  H
  C340     1.0000 0.52550  0.81900  0.38060  Biso   1.000  C
  C341     1.0000 0.51020  0.73470  0.36610  Biso   1.000  C
  C342     1.0000 0.48590  0.72660  0.32760  Biso   1.000  C
  H254     1.0000 0.47910  0.66780  0.31770  Biso   1.000  H
  O10      1.0000 0.40010  0.62110  0.17850  Biso   1.000  O
  O11      1.0000 0.39590  0.01580  0.20900  Biso   1.000  O
  C343     1.0000 0.43480  0.05900  0.20980  Biso   1.000  C
  H255     1.0000 0.43600  0.11420  0.22700  Biso   1.000  H
  H256     1.0000 0.45570  0.01840  0.22390  Biso   1.000  H
  H257     1.0000 0.43850  0.07170  0.17890  Biso   1.000  H
  O12      1.0000 0.35210  0.03470  0.12870  Biso   1.000  O
  C344     1.0000 0.31510  0.06110  0.12280  Biso   1.000  C
  H258     1.0000 0.31360  0.12380  0.11370  Biso   1.000  H
  H259     1.0000 0.29940  0.02490  0.09930  Biso   1.000  H
  H260     1.0000 0.30480  0.05430  0.15100  Biso   1.000  H
  O13      1.0000 0.32380  0.88090  0.08140  Biso   1.000  O
  C345     1.0000 0.29120  0.82200  0.06630  Biso   1.000  C
  H261     1.0000 0.27750  0.84150  0.03680  Biso   1.000  H
  H262     1.0000 0.30100  0.76130  0.06410  Biso   1.000  H
  H263     1.0000 0.27290  0.82330  0.08790  Biso   1.000  H
  O14      1.0000 0.34930  0.71300  0.11480  Biso   1.000  O
  C346     1.0000 0.36990  0.67200  0.08230  Biso   1.000  C
  H264     1.0000 0.35590  0.61830  0.07040  Biso   1.000  H
  H265     1.0000 0.37120  0.71400  0.05770  Biso   1.000  H
  H266     1.0000 0.39670  0.65660  0.09680  Biso   1.000  H
  O15      1.0000 0.55100  0.82510  0.41760  Biso   1.000  O
  C347     1.0000 0.56810  0.91010  0.43120  Biso   1.000  C
  H267     1.0000 0.58650  0.90350  0.45950  Biso   1.000  H
  H268     1.0000 0.58210  0.93280  0.40780  Biso   1.000  H
  H269     1.0000 0.54720  0.95200  0.43540  Biso   1.000  H
  O16      1.0000 0.52540  0.66990  0.39590  Biso   1.000  O
  C348     1.0000 0.51870  0.58650  0.38370  Biso   1.000  C
  H270     1.0000 0.53100  0.54710  0.40790  Biso   1.000  H
  H271     1.0000 0.49020  0.57570  0.37760  Biso   1.000  H
  H272     1.0000 0.52970  0.57470  0.35640  Biso   1.000  H
  C349     1.0000 0.40200  0.07200  0.22800  Biso   1.000  C
  H273     1.0000 0.39870  0.03150  0.25260  Biso   1.000  H
  H274     1.0000 0.40410  0.13350  0.23990  Biso   1.000  H
  C350     1.0000 0.36550  0.06600  0.19200  Biso   1.000  C
  H275     1.0000 0.36340  0.12180  0.17390  Biso   1.000  H
  H276     1.0000 0.34220  0.06330  0.20700  Biso   1.000  H
  C351     1.0000 0.36420  0.98700  0.16000  Biso   1.000  C
  H277     1.0000 0.34120  0.99240  0.13530  Biso   1.000  H
  H278     1.0000 0.36170  0.93090  0.17610  Biso   1.000  H
  C352     1.0000 0.40300  0.98700  0.14000  Biso   1.000  C
  H279     1.0000 0.40210  0.94010  0.11640  Biso   1.000  H
  H280     1.0000 0.40690  0.04530  0.12590  Biso   1.000  H
  C353     1.0000 0.43600  0.96800  0.18000  Biso   1.000  C
  H281     1.0000 0.43030  0.91420  0.19600  Biso   1.000  H
  H282     1.0000 0.46150  0.95800  0.16850  Biso   1.000  H
  C354     1.0000 0.44040  0.04900  0.21100  Biso   1.000  C
  H283     1.0000 0.46090  0.03670  0.23780  Biso   1.000  H
  H284     1.0000 0.44910  0.10120  0.19550  Biso   1.000  H
  C355     1.0000 0.47400  0.80100  0.33700  Biso   1.000  C
  H285     1.0000 0.45960  0.84240  0.35340  Biso   1.000  H
  H286     1.0000 0.50290  0.81000  0.34790  Biso   1.000  H
  C356     1.0000 0.46300  0.70400  0.34700  Biso   1.000  C
  H287     1.0000 0.43550  0.70240  0.35130  Biso   1.000  H
  H288     1.0000 0.48000  0.68320  0.37470  Biso   1.000  H
  C357     1.0000 0.46900  0.64300  0.30800  Biso   1.000  C
  H289     1.0000 0.46560  0.57990  0.31620  Biso   1.000  H
  H290     1.0000 0.49530  0.65050  0.30010  Biso   1.000  H
  C358     1.0000 0.43700  0.66600  0.26600  Biso   1.000  C
  H291     1.0000 0.41300  0.63200  0.26770  Biso   1.000  H
  H292     1.0000 0.44720  0.64780  0.23850  Biso   1.000  H
  C359     1.0000 0.42900  0.76600  0.26500  Biso   1.000  C
  H293     1.0000 0.42070  0.78520  0.23320  Biso   1.000  H
  H294     1.0000 0.40640  0.77820  0.28100  Biso   1.000  H
  C360     1.0000 0.46500  0.81800  0.28700  Biso   1.000  C
  H295     1.0000 0.45990  0.88290  0.28140  Biso   1.000  H
  H296     1.0000 0.48760  0.80150  0.27240  Biso   1.000  H
  C361     1.0000 0.34500  0.70800  0.06900  Biso   1.000  C
  H297     1.0000 0.32290  0.75110  0.06250  Biso   1.000  H
  H298     1.0000 0.34470  0.67000  0.04220  Biso   1.000  H
  C362     1.0000 0.34000  0.65000  0.11000  Biso   1.000  C
  H299     1.0000 0.34100  0.58630  0.10210  Biso   1.000  H
  H300     1.0000 0.31370  0.66180  0.11850  Biso   1.000  H
  C363     1.0000 0.37300  0.67400  0.14900  Biso   1.000  C
  H301     1.0000 0.37320  0.73860  0.15450  Biso   1.000  H
  H302     1.0000 0.36810  0.64340  0.17690  Biso   1.000  H
  C364     1.0000 0.41200  0.64300  0.13700  Biso   1.000  C
  H303     1.0000 0.41230  0.57820  0.13230  Biso   1.000  H
  H304     1.0000 0.43410  0.65790  0.16210  Biso   1.000  H
  C365     1.0000 0.41900  0.69200  0.09400  Biso   1.000  C
  H305     1.0000 0.44400  0.72480  0.09920  Biso   1.000  H
  H306     1.0000 0.41940  0.64860  0.06940  Biso   1.000  H
  C366     1.0000 0.38400  0.75800  0.08000  Biso   1.000  C
  H307     1.0000 0.38900  0.79270  0.05400  Biso   1.000  H
  H308     1.0000 0.38330  0.79970  0.10550  Biso   1.000  H
  C367     1.0000 0.05730  0.28650  0.24160  Biso   1.000  C
  C368     1.0000 0.06690  0.20340  0.26260  Biso   1.000  C
  H309     1.0000 0.05560  0.15090  0.24840  Biso   1.000  H
  C369     1.0000 0.09200  0.19630  0.30300  Biso   1.000  C
  O17      1.0000 0.07210  0.35900  0.26050  Biso   1.000  O
  C370     1.0000 0.11020  0.28270  0.32340  Biso   1.000  C
  C371     1.0000 0.09830  0.35830  0.29950  Biso   1.000  C
  C372     1.0000 0.10970  0.44360  0.31210  Biso   1.000  C
  C373     1.0000 0.13950  0.44500  0.35800  Biso   1.000  C
  C374     1.0000 0.15040  0.37270  0.37780  Biso   1.000  C
  C375     1.0000 0.13800  0.28680  0.36410  Biso   1.000  C
  C376     1.0000 0.03090  0.29580  0.20000  Biso   1.000  C
  C377     1.0000 0.01620  0.38240  0.18380  Biso   1.000  C
  H310     1.0000 0.02630  0.43380  0.20010  Biso   1.000  H
  C378     1.0000 0.98890  0.39300  0.14650  Biso   1.000  C
  H311     1.0000 0.97910  0.45090  0.13830  Biso   1.000  H
  C379     1.0000 0.97450  0.31900  0.11940  Biso   1.000  C
  C380     1.0000 0.98980  0.23470  0.13390  Biso   1.000  C
  C381     1.0000 0.01410  0.22660  0.17240  Biso   1.000  C
  H312     1.0000 0.02090  0.16780  0.18230  Biso   1.000  H
  O18      1.0000 0.09990  0.12110  0.32150  Biso   1.000  O
  O19      1.0000 0.10410  0.51580  0.29100  Biso   1.000  O
  C382     1.0000 0.06520  0.55900  0.29020  Biso   1.000  C
  H313     1.0000 0.06400  0.61420  0.27300  Biso   1.000  H
  H314     1.0000 0.04430  0.51840  0.27610  Biso   1.000  H
  H315     1.0000 0.06150  0.57170  0.32110  Biso   1.000  H
  O20      1.0000 0.14790  0.53470  0.37130  Biso   1.000  O
  C383     1.0000 0.18490  0.56110  0.37720  Biso   1.000  C
  H316     1.0000 0.18640  0.62380  0.38630  Biso   1.000  H
  H317     1.0000 0.20060  0.52490  0.40070  Biso   1.000  H
  H318     1.0000 0.19520  0.55430  0.34900  Biso   1.000  H
  O21      1.0000 0.17620  0.38090  0.41860  Biso   1.000  O
  C384     1.0000 0.20880  0.32200  0.43370  Biso   1.000  C
  H319     1.0000 0.22250  0.34150  0.46320  Biso   1.000  H
  H320     1.0000 0.19900  0.26130  0.43590  Biso   1.000  H
  H321     1.0000 0.22710  0.32330  0.41210  Biso   1.000  H
  O22      1.0000 0.15070  0.21300  0.38520  Biso   1.000  O
  C385     1.0000 0.13010  0.17200  0.41770  Biso   1.000  C
  H322     1.0000 0.14410  0.11830  0.42960  Biso   1.000  H
  H323     1.0000 0.12880  0.21400  0.44230  Biso   1.000  H
  H324     1.0000 0.10330  0.15660  0.40320  Biso   1.000  H
  O23      1.0000 0.94900  0.32510  0.08240  Biso   1.000  O
  C386     1.0000 0.93190  0.41010  0.06880  Biso   1.000  C
  H325     1.0000 0.91350  0.40350  0.04050  Biso   1.000  H
  H326     1.0000 0.91790  0.43280  0.09220  Biso   1.000  H
  H327     1.0000 0.95280  0.45200  0.06460  Biso   1.000  H
  O24      1.0000 0.97460  0.16990  0.10410  Biso   1.000  O
  C387     1.0000 0.98130  0.08650  0.11630  Biso   1.000  C
  H328     1.0000 0.96900  0.04710  0.09210  Biso   1.000  H
  H329     1.0000 0.00980  0.07570  0.12240  Biso   1.000  H
  H330     1.0000 0.97030  0.07470  0.14360  Biso   1.000  H
  C388     1.0000 0.09800  0.57200  0.27200  Biso   1.000  C
  H331     1.0000 0.10130  0.53150  0.24740  Biso   1.000  H
  H332     1.0000 0.09590  0.63350  0.26010  Biso   1.000  H
  C389     1.0000 0.13450  0.56600  0.30800  Biso   1.000  C
  H333     1.0000 0.13660  0.62180  0.32610  Biso   1.000  H
  H334     1.0000 0.15780  0.56330  0.29300  Biso   1.000  H
  C390     1.0000 0.13580  0.48700  0.34000  Biso   1.000  C
  H335     1.0000 0.15880  0.49240  0.36470  Biso   1.000  H
  H336     1.0000 0.13830  0.43090  0.32390  Biso   1.000  H
  C391     1.0000 0.09700  0.48700  0.36000  Biso   1.000  C
  H337     1.0000 0.09790  0.44010  0.38360  Biso   1.000  H
  H338     1.0000 0.09310  0.54530  0.37410  Biso   1.000  H
  C392     1.0000 0.06400  0.46800  0.32000  Biso   1.000  C
  H339     1.0000 0.06970  0.41420  0.30400  Biso   1.000  H
  H340     1.0000 0.03850  0.45800  0.33150  Biso   1.000  H
  C393     1.0000 0.05960  0.54900  0.28900  Biso   1.000  C
  H341     1.0000 0.03910  0.53670  0.26220  Biso   1.000  H
  H342     1.0000 0.05090  0.60120  0.30450  Biso   1.000  H
  C394     1.0000 0.02600  0.30100  0.16300  Biso   1.000  C
  H343     1.0000 0.04040  0.34240  0.14660  Biso   1.000  H
  H344     1.0000 0.99710  0.31000  0.15210  Biso   1.000  H
  C395     1.0000 0.03700  0.20400  0.15300  Biso   1.000  C
  H345     1.0000 0.06450  0.20240  0.14870  Biso   1.000  H
  H346     1.0000 0.02000  0.18320  0.12530  Biso   1.000  H
  C396     1.0000 0.03100  0.14300  0.19200  Biso   1.000  C
  H347     1.0000 0.03440  0.07990  0.18380  Biso   1.000  H
  H348     1.0000 0.00470  0.15050  0.19990  Biso   1.000  H
  C397     1.0000 0.06300  0.16600  0.23400  Biso   1.000  C
  H349     1.0000 0.08700  0.13200  0.23230  Biso   1.000  H
  H350     1.0000 0.05280  0.14780  0.26150  Biso   1.000  H
  C398     1.0000 0.07100  0.26600  0.23500  Biso   1.000  C
  H351     1.0000 0.07930  0.28520  0.26680  Biso   1.000  H
  H352     1.0000 0.09360  0.27820  0.21900  Biso   1.000  H
  C399     1.0000 0.03500  0.31800  0.21300  Biso   1.000  C
  H353     1.0000 0.04010  0.38290  0.21860  Biso   1.000  H
  H354     1.0000 0.01240  0.30150  0.22760  Biso   1.000  H
  C400     1.0000 0.15500  0.20800  0.43100  Biso   1.000  C
  H355     1.0000 0.17710  0.25110  0.43750  Biso   1.000  H
  H356     1.0000 0.15530  0.17000  0.45780  Biso   1.000  H
  C401     1.0000 0.16000  0.15000  0.39000  Biso   1.000  C
  H357     1.0000 0.15900  0.08630  0.39790  Biso   1.000  H
  H358     1.0000 0.18630  0.16180  0.38150  Biso   1.000  H
  C402     1.0000 0.12700  0.17400  0.35100  Biso   1.000  C
  H359     1.0000 0.12680  0.23860  0.34550  Biso   1.000  H
  H360     1.0000 0.13190  0.14340  0.32310  Biso   1.000  H
  C403     1.0000 0.08800  0.14300  0.36300  Biso   1.000  C
  H361     1.0000 0.08770  0.07820  0.36770  Biso   1.000  H
  H362     1.0000 0.06590  0.15790  0.33790  Biso   1.000  H
  C404     1.0000 0.08100  0.19200  0.40600  Biso   1.000  C
  H363     1.0000 0.05600  0.22480  0.40080  Biso   1.000  H
  H364     1.0000 0.08060  0.14860  0.43060  Biso   1.000  H
  C405     1.0000 0.11600  0.25800  0.42000  Biso   1.000  C
  H365     1.0000 0.11100  0.29270  0.44600  Biso   1.000  H
  H366     1.0000 0.11670  0.29970  0.39450  Biso   1.000  H
  C406     1.0000 0.94270  0.28650  0.25840  Biso   1.000  C
  C407     1.0000 0.93310  0.20340  0.23740  Biso   1.000  C
  H367     1.0000 0.94440  0.15090  0.25160  Biso   1.000  H
  C408     1.0000 0.90800  0.19630  0.19700  Biso   1.000  C
  O25      1.0000 0.92790  0.35900  0.23950  Biso   1.000  O
  C409     1.0000 0.88980  0.28270  0.17660  Biso   1.000  C
  C410     1.0000 0.90170  0.35830  0.20050  Biso   1.000  C
  C411     1.0000 0.89030  0.44360  0.18790  Biso   1.000  C
  C412     1.0000 0.86050  0.44500  0.14200  Biso   1.000  C
  C413     1.0000 0.84960  0.37270  0.12220  Biso   1.000  C
  C414     1.0000 0.86200  0.28680  0.13590  Biso   1.000  C
  C415     1.0000 0.96910  0.29580  0.30000  Biso   1.000  C
  C416     1.0000 0.98380  0.38240  0.31620  Biso   1.000  C
  H368     1.0000 0.97370  0.43380  0.29990  Biso   1.000  H
  C417     1.0000 0.01110  0.39300  0.35350  Biso   1.000  C
  H369     1.0000 0.02090  0.45090  0.36170  Biso   1.000  H
  C418     1.0000 0.02550  0.31900  0.38060  Biso   1.000  C
  C419     1.0000 0.01020  0.23470  0.36610  Biso   1.000  C
  C420     1.0000 0.98590  0.22660  0.32760  Biso   1.000  C
  H370     1.0000 0.97910  0.16780  0.31770  Biso   1.000  H
  O26      1.0000 0.90010  0.12110  0.17850  Biso   1.000  O
  O27      1.0000 0.89590  0.51580  0.20900  Biso   1.000  O
  C421     1.0000 0.93480  0.55900  0.20980  Biso   1.000  C
  H371     1.0000 0.93600  0.61420  0.22700  Biso   1.000  H
  H372     1.0000 0.95570  0.51840  0.22390  Biso   1.000  H
  H373     1.0000 0.93850  0.57170  0.17890  Biso   1.000  H
  O28      1.0000 0.85210  0.53470  0.12870  Biso   1.000  O
  C422     1.0000 0.81510  0.56110  0.12280  Biso   1.000  C
  H374     1.0000 0.81360  0.62380  0.11370  Biso   1.000  H
  H375     1.0000 0.79940  0.52490  0.09930  Biso   1.000  H
  H376     1.0000 0.80480  0.55430  0.15100  Biso   1.000  H
  O29      1.0000 0.82380  0.38090  0.08140  Biso   1.000  O
  C423     1.0000 0.79120  0.32200  0.06630  Biso   1.000  C
  H377     1.0000 0.77750  0.34150  0.03680  Biso   1.000  H
  H378     1.0000 0.80100  0.26130  0.06410  Biso   1.000  H
  H379     1.0000 0.77290  0.32330  0.08790  Biso   1.000  H
  O30      1.0000 0.84930  0.21300  0.11480  Biso   1.000  O
  C424     1.0000 0.86990  0.17200  0.08230  Biso   1.000  C
  H380     1.0000 0.85590  0.11830  0.07040  Biso   1.000  H
  H381     1.0000 0.87120  0.21400  0.05770  Biso   1.000  H
  H382     1.0000 0.89670  0.15660  0.09680  Biso   1.000  H
  O31      1.0000 0.05100  0.32510  0.41760  Biso   1.000  O
  C425     1.0000 0.06810  0.41010  0.43120  Biso   1.000  C
  H383     1.0000 0.08650  0.40350  0.45950  Biso   1.000  H
  H384     1.0000 0.08210  0.43280  0.40780  Biso   1.000  H
  H385     1.0000 0.04720  0.45200  0.43540  Biso   1.000  H
  O32      1.0000 0.02540  0.16990  0.39590  Biso   1.000  O
  C426     1.0000 0.01870  0.08650  0.38370  Biso   1.000  C
  H386     1.0000 0.03100  0.04710  0.40790  Biso   1.000  H
  H387     1.0000 0.99020  0.07570  0.37760  Biso   1.000  H
  H388     1.0000 0.02970  0.07470  0.35640  Biso   1.000  H
  C427     1.0000 0.90200  0.57200  0.22800  Biso   1.000  C
  H389     1.0000 0.89870  0.53150  0.25260  Biso   1.000  H
  H390     1.0000 0.90410  0.63350  0.23990  Biso   1.000  H
  C428     1.0000 0.86550  0.56600  0.19200  Biso   1.000  C
  H391     1.0000 0.86340  0.62180  0.17390  Biso   1.000  H
  H392     1.0000 0.84220  0.56330  0.20700  Biso   1.000  H
  C429     1.0000 0.86420  0.48700  0.16000  Biso   1.000  C
  H393     1.0000 0.84120  0.49240  0.13530  Biso   1.000  H
  H394     1.0000 0.86170  0.43090  0.17610  Biso   1.000  H
  C430     1.0000 0.90300  0.48700  0.14000  Biso   1.000  C
  H395     1.0000 0.90210  0.44010  0.11640  Biso   1.000  H
  H396     1.0000 0.90690  0.54530  0.12590  Biso   1.000  H
  C431     1.0000 0.93600  0.46800  0.18000  Biso   1.000  C
  H397     1.0000 0.93030  0.41420  0.19600  Biso   1.000  H
  H398     1.0000 0.96150  0.45800  0.16850  Biso   1.000  H
  C432     1.0000 0.94040  0.54900  0.21100  Biso   1.000  C
  H399     1.0000 0.96090  0.53670  0.23780  Biso   1.000  H
  H400     1.0000 0.94910  0.60120  0.19550  Biso   1.000  H
  C433     1.0000 0.97400  0.30100  0.33700  Biso   1.000  C
  H401     1.0000 0.95960  0.34240  0.35340  Biso   1.000  H
  H402     1.0000 0.00290  0.31000  0.34790  Biso   1.000  H
  C434     1.0000 0.96300  0.20400  0.34700  Biso   1.000  C
  H403     1.0000 0.93550  0.20240  0.35130  Biso   1.000  H
  H404     1.0000 0.98000  0.18320  0.37470  Biso   1.000  H
  C435     1.0000 0.96900  0.14300  0.30800  Biso   1.000  C
  H405     1.0000 0.96560  0.07990  0.31620  Biso   1.000  H
  H406     1.0000 0.99530  0.15050  0.30010  Biso   1.000  H
  C436     1.0000 0.93700  0.16600  0.26600  Biso   1.000  C
  H407     1.0000 0.91300  0.13200  0.26770  Biso   1.000  H
  H408     1.0000 0.94720  0.14780  0.23850  Biso   1.000  H
  C437     1.0000 0.92900  0.26600  0.26500  Biso   1.000  C
  H409     1.0000 0.92070  0.28520  0.23320  Biso   1.000  H
  H410     1.0000 0.90640  0.27820  0.28100  Biso   1.000  H
  C438     1.0000 0.96500  0.31800  0.28700  Biso   1.000  C
  H411     1.0000 0.95990  0.38290  0.28140  Biso   1.000  H
  H412     1.0000 0.98760  0.30150  0.27240  Biso   1.000  H
  C439     1.0000 0.84500  0.20800  0.06900  Biso   1.000  C
  H413     1.0000 0.82290  0.25110  0.06250  Biso   1.000  H
  H414     1.0000 0.84470  0.17000  0.04220  Biso   1.000  H
  C440     1.0000 0.84000  0.15000  0.11000  Biso   1.000  C
  H415     1.0000 0.84100  0.08630  0.10210  Biso   1.000  H
  H416     1.0000 0.81370  0.16180  0.11850  Biso   1.000  H
  C441     1.0000 0.87300  0.17400  0.14900  Biso   1.000  C
  H417     1.0000 0.87320  0.23860  0.15450  Biso   1.000  H
  H418     1.0000 0.86810  0.14340  0.17690  Biso   1.000  H
  C442     1.0000 0.91200  0.14300  0.13700  Biso   1.000  C
  H419     1.0000 0.91230  0.07820  0.13230  Biso   1.000  H
  H420     1.0000 0.93410  0.15790  0.16210  Biso   1.000  H
  C443     1.0000 0.91900  0.19200  0.09400  Biso   1.000  C
  H421     1.0000 0.94400  0.22480  0.09920  Biso   1.000  H
  H422     1.0000 0.91940  0.14860  0.06940  Biso   1.000  H
  C444     1.0000 0.88400  0.25800  0.08000  Biso   1.000  C
  H423     1.0000 0.88900  0.29270  0.05400  Biso   1.000  H
  H424     1.0000 0.88330  0.29970  0.10550  Biso   1.000  H
  C445     1.0000 0.44270  0.21350  0.75840  Biso   1.000  C
  C446     1.0000 0.43310  0.29660  0.73740  Biso   1.000  C
  H425     1.0000 0.44440  0.34910  0.75160  Biso   1.000  H
  C447     1.0000 0.40800  0.30370  0.69700  Biso   1.000  C
  O33      1.0000 0.42790  0.14100  0.73950  Biso   1.000  O
  C448     1.0000 0.38980  0.21730  0.67660  Biso   1.000  C
  C449     1.0000 0.40170  0.14170  0.70050  Biso   1.000  C
  C450     1.0000 0.39030  0.05640  0.68790  Biso   1.000  C
  C451     1.0000 0.36050  0.05500  0.64200  Biso   1.000  C
  C452     1.0000 0.34960  0.12730  0.62220  Biso   1.000  C
  C453     1.0000 0.36200  0.21320  0.63590  Biso   1.000  C
  C454     1.0000 0.46910  0.20420  0.80000  Biso   1.000  C
  C455     1.0000 0.48380  0.11760  0.81620  Biso   1.000  C
  H426     1.0000 0.47370  0.06620  0.79990  Biso   1.000  H
  C456     1.0000 0.51110  0.10700  0.85350  Biso   1.000  C
  H427     1.0000 0.52090  0.04910  0.86170  Biso   1.000  H
  C457     1.0000 0.52550  0.18100  0.88060  Biso   1.000  C
  C458     1.0000 0.51020  0.26530  0.86610  Biso   1.000  C
  C459     1.0000 0.48590  0.27340  0.82760  Biso   1.000  C
  H428     1.0000 0.47910  0.33220  0.81770  Biso   1.000  H
  O34      1.0000 0.40010  0.37890  0.67850  Biso   1.000  O
  O35      1.0000 0.39590  0.98420  0.70900  Biso   1.000  O
  C460     1.0000 0.43480  0.94100  0.70980  Biso   1.000  C
  H429     1.0000 0.43600  0.88580  0.72700  Biso   1.000  H
  H430     1.0000 0.45570  0.98160  0.72390  Biso   1.000  H
  H431     1.0000 0.43850  0.92830  0.67890  Biso   1.000  H
  O36      1.0000 0.35210  0.96530  0.62870  Biso   1.000  O
  C461     1.0000 0.31510  0.93890  0.62280  Biso   1.000  C
  H432     1.0000 0.31360  0.87620  0.61370  Biso   1.000  H
  H433     1.0000 0.29940  0.97510  0.59930  Biso   1.000  H
  H434     1.0000 0.30480  0.94570  0.65100  Biso   1.000  H
  O37      1.0000 0.32380  0.11910  0.58140  Biso   1.000  O
  C462     1.0000 0.29120  0.17800  0.56630  Biso   1.000  C
  H435     1.0000 0.27750  0.15850  0.53680  Biso   1.000  H
  H436     1.0000 0.30100  0.23870  0.56410  Biso   1.000  H
  H437     1.0000 0.27290  0.17670  0.58790  Biso   1.000  H
  O38      1.0000 0.34930  0.28700  0.61480  Biso   1.000  O
  C463     1.0000 0.36990  0.32800  0.58230  Biso   1.000  C
  H438     1.0000 0.35590  0.38170  0.57040  Biso   1.000  H
  H439     1.0000 0.37120  0.28600  0.55770  Biso   1.000  H
  H440     1.0000 0.39670  0.34340  0.59680  Biso   1.000  H
  O39      1.0000 0.55100  0.17490  0.91760  Biso   1.000  O
  C464     1.0000 0.56810  0.08990  0.93120  Biso   1.000  C
  H441     1.0000 0.58650  0.09650  0.95950  Biso   1.000  H
  H442     1.0000 0.58210  0.06720  0.90780  Biso   1.000  H
  H443     1.0000 0.54720  0.04800  0.93540  Biso   1.000  H
  O40      1.0000 0.52540  0.33010  0.89590  Biso   1.000  O
  C465     1.0000 0.51870  0.41350  0.88370  Biso   1.000  C
  H444     1.0000 0.53100  0.45290  0.90790  Biso   1.000  H
  H445     1.0000 0.49020  0.42430  0.87760  Biso   1.000  H
  H446     1.0000 0.52970  0.42530  0.85640  Biso   1.000  H
  C466     1.0000 0.40200  0.92800  0.72800  Biso   1.000  C
  H447     1.0000 0.39870  0.96850  0.75260  Biso   1.000  H
  H448     1.0000 0.40410  0.86650  0.73990  Biso   1.000  H
  C467     1.0000 0.36550  0.93400  0.69200  Biso   1.000  C
  H449     1.0000 0.36340  0.87820  0.67390  Biso   1.000  H
  H450     1.0000 0.34220  0.93670  0.70700  Biso   1.000  H
  C468     1.0000 0.36420  0.01300  0.66000  Biso   1.000  C
  H451     1.0000 0.34120  0.00760  0.63530  Biso   1.000  H
  H452     1.0000 0.36170  0.06910  0.67610  Biso   1.000  H
  C469     1.0000 0.40300  0.01300  0.64000  Biso   1.000  C
  H453     1.0000 0.40210  0.05990  0.61640  Biso   1.000  H
  H454     1.0000 0.40690  0.95470  0.62590  Biso   1.000  H
  C470     1.0000 0.43600  0.03200  0.68000  Biso   1.000  C
  H455     1.0000 0.43030  0.08580  0.69600  Biso   1.000  H
  H456     1.0000 0.46150  0.04200  0.66850  Biso   1.000  H
  C471     1.0000 0.44040  0.95100  0.71100  Biso   1.000  C
  H457     1.0000 0.46090  0.96330  0.73780  Biso   1.000  H
  H458     1.0000 0.44910  0.89880  0.69550  Biso   1.000  H
  C472     1.0000 0.47400  0.19900  0.83700  Biso   1.000  C
  H459     1.0000 0.45960  0.15760  0.85340  Biso   1.000  H
  H460     1.0000 0.50290  0.19000  0.84790  Biso   1.000  H
  C473     1.0000 0.46300  0.29600  0.84700  Biso   1.000  C
  H461     1.0000 0.43550  0.29760  0.85130  Biso   1.000  H
  H462     1.0000 0.48000  0.31680  0.87470  Biso   1.000  H
  C474     1.0000 0.46900  0.35700  0.80800  Biso   1.000  C
  H463     1.0000 0.46560  0.42010  0.81620  Biso   1.000  H
  H464     1.0000 0.49530  0.34950  0.80010  Biso   1.000  H
  C475     1.0000 0.43700  0.33400  0.76600  Biso   1.000  C
  H465     1.0000 0.41300  0.36800  0.76770  Biso   1.000  H
  H466     1.0000 0.44720  0.35220  0.73850  Biso   1.000  H
  C476     1.0000 0.42900  0.23400  0.76500  Biso   1.000  C
  H467     1.0000 0.42070  0.21480  0.73320  Biso   1.000  H
  H468     1.0000 0.40640  0.22180  0.78100  Biso   1.000  H
  C477     1.0000 0.46500  0.18200  0.78700  Biso   1.000  C
  H469     1.0000 0.45990  0.11710  0.78140  Biso   1.000  H
  H470     1.0000 0.48760  0.19850  0.77240  Biso   1.000  H
  C478     1.0000 0.34500  0.29200  0.56900  Biso   1.000  C
  H471     1.0000 0.32290  0.24890  0.56250  Biso   1.000  H
  H472     1.0000 0.34470  0.33000  0.54220  Biso   1.000  H
  C479     1.0000 0.34000  0.35000  0.61000  Biso   1.000  C
  H473     1.0000 0.34100  0.41370  0.60210  Biso   1.000  H
  H474     1.0000 0.31370  0.33820  0.61850  Biso   1.000  H
  C480     1.0000 0.37300  0.32600  0.64900  Biso   1.000  C
  H475     1.0000 0.37320  0.26140  0.65450  Biso   1.000  H
  H476     1.0000 0.36810  0.35660  0.67690  Biso   1.000  H
  C481     1.0000 0.41200  0.35700  0.63700  Biso   1.000  C
  H477     1.0000 0.41230  0.42180  0.63230  Biso   1.000  H
  H478     1.0000 0.43410  0.34210  0.66210  Biso   1.000  H
  C482     1.0000 0.41900  0.30800  0.59400  Biso   1.000  C
  H479     1.0000 0.44400  0.27520  0.59920  Biso   1.000  H
  H480     1.0000 0.41940  0.35140  0.56940  Biso   1.000  H
  C483     1.0000 0.38400  0.24200  0.58000  Biso   1.000  C
  H481     1.0000 0.38900  0.20730  0.55400  Biso   1.000  H
  H482     1.0000 0.38330  0.20030  0.60550  Biso   1.000  H
  C484     1.0000 0.55730  0.21350  0.74160  Biso   1.000  C
  C485     1.0000 0.56690  0.29660  0.76260  Biso   1.000  C
  H483     1.0000 0.55560  0.34910  0.74840  Biso   1.000  H
  C486     1.0000 0.59200  0.30370  0.80300  Biso   1.000  C
  O41      1.0000 0.57210  0.14100  0.76050  Biso   1.000  O
  C487     1.0000 0.61020  0.21730  0.82340  Biso   1.000  C
  C488     1.0000 0.59830  0.14170  0.79950  Biso   1.000  C
  C489     1.0000 0.60970  0.05640  0.81210  Biso   1.000  C
  C490     1.0000 0.63950  0.05500  0.85800  Biso   1.000  C
  C491     1.0000 0.65040  0.12730  0.87780  Biso   1.000  C
  C492     1.0000 0.63800  0.21320  0.86410  Biso   1.000  C
  C493     1.0000 0.53090  0.20420  0.70000  Biso   1.000  C
  C494     1.0000 0.51620  0.11760  0.68380  Biso   1.000  C
  H484     1.0000 0.52630  0.06620  0.70010  Biso   1.000  H
  C495     1.0000 0.48890  0.10700  0.64650  Biso   1.000  C
  H485     1.0000 0.47910  0.04910  0.63830  Biso   1.000  H
  C496     1.0000 0.47450  0.18100  0.61940  Biso   1.000  C
  C497     1.0000 0.48980  0.26530  0.63390  Biso   1.000  C
  C498     1.0000 0.51410  0.27340  0.67240  Biso   1.000  C
  H486     1.0000 0.52090  0.33220  0.68230  Biso   1.000  H
  O42      1.0000 0.59990  0.37890  0.82150  Biso   1.000  O
  O43      1.0000 0.60410  0.98420  0.79100  Biso   1.000  O
  C499     1.0000 0.56520  0.94100  0.79020  Biso   1.000  C
  H487     1.0000 0.56400  0.88580  0.77300  Biso   1.000  H
  H488     1.0000 0.54430  0.98160  0.77610  Biso   1.000  H
  H489     1.0000 0.56150  0.92830  0.82110  Biso   1.000  H
  O44      1.0000 0.64790  0.96530  0.87130  Biso   1.000  O
  C500     1.0000 0.68490  0.93890  0.87720  Biso   1.000  C
  H490     1.0000 0.68640  0.87620  0.88630  Biso   1.000  H
  H491     1.0000 0.70060  0.97510  0.90070  Biso   1.000  H
  H492     1.0000 0.69520  0.94570  0.84900  Biso   1.000  H
  O45      1.0000 0.67620  0.11910  0.91860  Biso   1.000  O
  C501     1.0000 0.70880  0.17800  0.93370  Biso   1.000  C
  H493     1.0000 0.72250  0.15850  0.96320  Biso   1.000  H
  H494     1.0000 0.69900  0.23870  0.93590  Biso   1.000  H
  H495     1.0000 0.72710  0.17670  0.91210  Biso   1.000  H
  O46      1.0000 0.65070  0.28700  0.88520  Biso   1.000  O
  C502     1.0000 0.63010  0.32800  0.91770  Biso   1.000  C
  H496     1.0000 0.64410  0.38170  0.92960  Biso   1.000  H
  H497     1.0000 0.62880  0.28600  0.94230  Biso   1.000  H
  H498     1.0000 0.60330  0.34340  0.90320  Biso   1.000  H
  O47      1.0000 0.44900  0.17490  0.58240  Biso   1.000  O
  C503     1.0000 0.43190  0.08990  0.56880  Biso   1.000  C
  H499     1.0000 0.41350  0.09650  0.54050  Biso   1.000  H
  H500     1.0000 0.41790  0.06720  0.59220  Biso   1.000  H
  H501     1.0000 0.45280  0.04800  0.56460  Biso   1.000  H
  O48      1.0000 0.47460  0.33010  0.60410  Biso   1.000  O
  C504     1.0000 0.48130  0.41350  0.61630  Biso   1.000  C
  H502     1.0000 0.46900  0.45290  0.59210  Biso   1.000  H
  H503     1.0000 0.50980  0.42430  0.62240  Biso   1.000  H
  H504     1.0000 0.47030  0.42530  0.64360  Biso   1.000  H
  C505     1.0000 0.59800  0.92800  0.77200  Biso   1.000  C
  H505     1.0000 0.60130  0.96850  0.74740  Biso   1.000  H
  H506     1.0000 0.59590  0.86650  0.76010  Biso   1.000  H
  C506     1.0000 0.63450  0.93400  0.80800  Biso   1.000  C
  H507     1.0000 0.63660  0.87820  0.82610  Biso   1.000  H
  H508     1.0000 0.65780  0.93670  0.79300  Biso   1.000  H
  C507     1.0000 0.63580  0.01300  0.84000  Biso   1.000  C
  H509     1.0000 0.65880  0.00760  0.86470  Biso   1.000  H
  H510     1.0000 0.63830  0.06910  0.82390  Biso   1.000  H
  C508     1.0000 0.59700  0.01300  0.86000  Biso   1.000  C
  H511     1.0000 0.59790  0.05990  0.88360  Biso   1.000  H
  H512     1.0000 0.59310  0.95470  0.87410  Biso   1.000  H
  C509     1.0000 0.56400  0.03200  0.82000  Biso   1.000  C
  H513     1.0000 0.56970  0.08580  0.80400  Biso   1.000  H
  H514     1.0000 0.53850  0.04200  0.83150  Biso   1.000  H
  C510     1.0000 0.55960  0.95100  0.78900  Biso   1.000  C
  H515     1.0000 0.53910  0.96330  0.76220  Biso   1.000  H
  H516     1.0000 0.55090  0.89880  0.80450  Biso   1.000  H
  C511     1.0000 0.52600  0.19900  0.66300  Biso   1.000  C
  H517     1.0000 0.54040  0.15760  0.64660  Biso   1.000  H
  H518     1.0000 0.49710  0.19000  0.65210  Biso   1.000  H
  C512     1.0000 0.53700  0.29600  0.65300  Biso   1.000  C
  H519     1.0000 0.56450  0.29760  0.64870  Biso   1.000  H
  H520     1.0000 0.52000  0.31680  0.62530  Biso   1.000  H
  C513     1.0000 0.53100  0.35700  0.69200  Biso   1.000  C
  H521     1.0000 0.53440  0.42010  0.68380  Biso   1.000  H
  H522     1.0000 0.50470  0.34950  0.69990  Biso   1.000  H
  C514     1.0000 0.56300  0.33400  0.73400  Biso   1.000  C
  H523     1.0000 0.58700  0.36800  0.73230  Biso   1.000  H
  H524     1.0000 0.55280  0.35220  0.76150  Biso   1.000  H
  C515     1.0000 0.57100  0.23400  0.73500  Biso   1.000  C
  H525     1.0000 0.57930  0.21480  0.76680  Biso   1.000  H
  H526     1.0000 0.59360  0.22180  0.71900  Biso   1.000  H
  C516     1.0000 0.53500  0.18200  0.71300  Biso   1.000  C
  H527     1.0000 0.54010  0.11710  0.71860  Biso   1.000  H
  H528     1.0000 0.51240  0.19850  0.72760  Biso   1.000  H
  C517     1.0000 0.65500  0.29200  0.93100  Biso   1.000  C
  H529     1.0000 0.67710  0.24890  0.93750  Biso   1.000  H
  H530     1.0000 0.65530  0.33000  0.95780  Biso   1.000  H
  C518     1.0000 0.66000  0.35000  0.89000  Biso   1.000  C
  H531     1.0000 0.65900  0.41370  0.89790  Biso   1.000  H
  H532     1.0000 0.68630  0.33820  0.88150  Biso   1.000  H
  C519     1.0000 0.62700  0.32600  0.85100  Biso   1.000  C
  H533     1.0000 0.62680  0.26140  0.84550  Biso   1.000  H
  H534     1.0000 0.63190  0.35660  0.82310  Biso   1.000  H
  C520     1.0000 0.58800  0.35700  0.86300  Biso   1.000  C
  H535     1.0000 0.58770  0.42180  0.86770  Biso   1.000  H
  H536     1.0000 0.56590  0.34210  0.83790  Biso   1.000  H
  C521     1.0000 0.58100  0.30800  0.90600  Biso   1.000  C
  H537     1.0000 0.55600  0.27520  0.90080  Biso   1.000  H
  H538     1.0000 0.58060  0.35140  0.93060  Biso   1.000  H
  C522     1.0000 0.61600  0.24200  0.92000  Biso   1.000  C
  H539     1.0000 0.61100  0.20730  0.94600  Biso   1.000  H
  H540     1.0000 0.61670  0.20030  0.89450  Biso   1.000  H
  C523     1.0000 0.94270  0.71350  0.75840  Biso   1.000  C
  C524     1.0000 0.93310  0.79660  0.73740  Biso   1.000  C
  H541     1.0000 0.94440  0.84910  0.75160  Biso   1.000  H
  C525     1.0000 0.90800  0.80370  0.69700  Biso   1.000  C
  O49      1.0000 0.92790  0.64100  0.73950  Biso   1.000  O
  C526     1.0000 0.88980  0.71730  0.67660  Biso   1.000  C
  C527     1.0000 0.90170  0.64170  0.70050  Biso   1.000  C
  C528     1.0000 0.89030  0.55640  0.68790  Biso   1.000  C
  C529     1.0000 0.86050  0.55500  0.64200  Biso   1.000  C
  C530     1.0000 0.84960  0.62730  0.62220  Biso   1.000  C
  C531     1.0000 0.86200  0.71320  0.63590  Biso   1.000  C
  C532     1.0000 0.96910  0.70420  0.80000  Biso   1.000  C
  C533     1.0000 0.98380  0.61760  0.81620  Biso   1.000  C
  H542     1.0000 0.97370  0.56620  0.79990  Biso   1.000  H
  C534     1.0000 0.01110  0.60700  0.85350  Biso   1.000  C
  H543     1.0000 0.02090  0.54910  0.86170  Biso   1.000  H
  C535     1.0000 0.02550  0.68100  0.88060  Biso   1.000  C
  C536     1.0000 0.01020  0.76530  0.86610  Biso   1.000  C
  C537     1.0000 0.98590  0.77340  0.82760  Biso   1.000  C
  H544     1.0000 0.97910  0.83220  0.81770  Biso   1.000  H
  O50      1.0000 0.90010  0.87890  0.67850  Biso   1.000  O
  O51      1.0000 0.89590  0.48420  0.70900  Biso   1.000  O
  C538     1.0000 0.93480  0.44100  0.70980  Biso   1.000  C
  H545     1.0000 0.93600  0.38580  0.72700  Biso   1.000  H
  H546     1.0000 0.95570  0.48160  0.72390  Biso   1.000  H
  H547     1.0000 0.93850  0.42830  0.67890  Biso   1.000  H
  O52      1.0000 0.85210  0.46530  0.62870  Biso   1.000  O
  C539     1.0000 0.81510  0.43890  0.62280  Biso   1.000  C
  H548     1.0000 0.81360  0.37620  0.61370  Biso   1.000  H
  H549     1.0000 0.79940  0.47510  0.59930  Biso   1.000  H
  H550     1.0000 0.80480  0.44570  0.65100  Biso   1.000  H
  O53      1.0000 0.82380  0.61910  0.58140  Biso   1.000  O
  C540     1.0000 0.79120  0.67800  0.56630  Biso   1.000  C
  H551     1.0000 0.77750  0.65850  0.53680  Biso   1.000  H
  H552     1.0000 0.80100  0.73870  0.56410  Biso   1.000  H
  H553     1.0000 0.77290  0.67670  0.58790  Biso   1.000  H
  O54      1.0000 0.84930  0.78700  0.61480  Biso   1.000  O
  C541     1.0000 0.86990  0.82800  0.58230  Biso   1.000  C
  H554     1.0000 0.85590  0.88170  0.57040  Biso   1.000  H
  H555     1.0000 0.87120  0.78600  0.55770  Biso   1.000  H
  H556     1.0000 0.89670  0.84340  0.59680  Biso   1.000  H
  O55      1.0000 0.05100  0.67490  0.91760  Biso   1.000  O
  C542     1.0000 0.06810  0.58990  0.93120  Biso   1.000  C
  H557     1.0000 0.08650  0.59650  0.95950  Biso   1.000  H
  H558     1.0000 0.08210  0.56720  0.90780  Biso   1.000  H
  H559     1.0000 0.04720  0.54800  0.93540  Biso   1.000  H
  O56      1.0000 0.02540  0.83010  0.89590  Biso   1.000  O
  C543     1.0000 0.01870  0.91350  0.88370  Biso   1.000  C
  H560     1.0000 0.03100  0.95290  0.90790  Biso   1.000  H
  H561     1.0000 0.99020  0.92430  0.87760  Biso   1.000  H
  H562     1.0000 0.02970  0.92530  0.85640  Biso   1.000  H
  C544     1.0000 0.90200  0.42800  0.72800  Biso   1.000  C
  H563     1.0000 0.89870  0.46850  0.75260  Biso   1.000  H
  H564     1.0000 0.90410  0.36650  0.73990  Biso   1.000  H
  C545     1.0000 0.86550  0.43400  0.69200  Biso   1.000  C
  H565     1.0000 0.86340  0.37820  0.67390  Biso   1.000  H
  H566     1.0000 0.84220  0.43670  0.70700  Biso   1.000  H
  C546     1.0000 0.86420  0.51300  0.66000  Biso   1.000  C
  H567     1.0000 0.84120  0.50760  0.63530  Biso   1.000  H
  H568     1.0000 0.86170  0.56910  0.67610  Biso   1.000  H
  C547     1.0000 0.90300  0.51300  0.64000  Biso   1.000  C
  H569     1.0000 0.90210  0.55990  0.61640  Biso   1.000  H
  H570     1.0000 0.90690  0.45470  0.62590  Biso   1.000  H
  C548     1.0000 0.93600  0.53200  0.68000  Biso   1.000  C
  H571     1.0000 0.93030  0.58580  0.69600  Biso   1.000  H
  H572     1.0000 0.96150  0.54200  0.66850  Biso   1.000  H
  C549     1.0000 0.94040  0.45100  0.71100  Biso   1.000  C
  H573     1.0000 0.96090  0.46330  0.73780  Biso   1.000  H
  H574     1.0000 0.94910  0.39880  0.69550  Biso   1.000  H
  C550     1.0000 0.97400  0.69900  0.83700  Biso   1.000  C
  H575     1.0000 0.95960  0.65760  0.85340  Biso   1.000  H
  H576     1.0000 0.00290  0.69000  0.84790  Biso   1.000  H
  C551     1.0000 0.96300  0.79600  0.84700  Biso   1.000  C
  H577     1.0000 0.93550  0.79760  0.85130  Biso   1.000  H
  H578     1.0000 0.98000  0.81680  0.87470  Biso   1.000  H
  C552     1.0000 0.96900  0.85700  0.80800  Biso   1.000  C
  H579     1.0000 0.96560  0.92010  0.81620  Biso   1.000  H
  H580     1.0000 0.99530  0.84950  0.80010  Biso   1.000  H
  C553     1.0000 0.93700  0.83400  0.76600  Biso   1.000  C
  H581     1.0000 0.91300  0.86800  0.76770  Biso   1.000  H
  H582     1.0000 0.94720  0.85220  0.73850  Biso   1.000  H
  C554     1.0000 0.92900  0.73400  0.76500  Biso   1.000  C
  H583     1.0000 0.92070  0.71480  0.73320  Biso   1.000  H
  H584     1.0000 0.90640  0.72180  0.78100  Biso   1.000  H
  C555     1.0000 0.96500  0.68200  0.78700  Biso   1.000  C
  H585     1.0000 0.95990  0.61710  0.78140  Biso   1.000  H
  H586     1.0000 0.98760  0.69850  0.77240  Biso   1.000  H
  C556     1.0000 0.84500  0.79200  0.56900  Biso   1.000  C
  H587     1.0000 0.82290  0.74890  0.56250  Biso   1.000  H
  H588     1.0000 0.84470  0.83000  0.54220  Biso   1.000  H
  C557     1.0000 0.84000  0.85000  0.61000  Biso   1.000  C
  H589     1.0000 0.84100  0.91370  0.60210  Biso   1.000  H
  H590     1.0000 0.81370  0.83820  0.61850  Biso   1.000  H
  C558     1.0000 0.87300  0.82600  0.64900  Biso   1.000  C
  H591     1.0000 0.87320  0.76140  0.65450  Biso   1.000  H
  H592     1.0000 0.86810  0.85660  0.67690  Biso   1.000  H
  C559     1.0000 0.91200  0.85700  0.63700  Biso   1.000  C
  H593     1.0000 0.91230  0.92180  0.63230  Biso   1.000  H
  H594     1.0000 0.93410  0.84210  0.66210  Biso   1.000  H
  C560     1.0000 0.91900  0.80800  0.59400  Biso   1.000  C
  H595     1.0000 0.94400  0.77520  0.59920  Biso   1.000  H
  H596     1.0000 0.91940  0.85140  0.56940  Biso   1.000  H
  C561     1.0000 0.88400  0.74200  0.58000  Biso   1.000  C
  H597     1.0000 0.88900  0.70730  0.55400  Biso   1.000  H
  H598     1.0000 0.88330  0.70030  0.60550  Biso   1.000  H
  C562     1.0000 0.05730  0.71350  0.74160  Biso   1.000  C
  C563     1.0000 0.06690  0.79660  0.76260  Biso   1.000  C
  H599     1.0000 0.05560  0.84910  0.74840  Biso   1.000  H
  C564     1.0000 0.09200  0.80370  0.80300  Biso   1.000  C
  O57      1.0000 0.07210  0.64100  0.76050  Biso   1.000  O
  C565     1.0000 0.11020  0.71730  0.82340  Biso   1.000  C
  C566     1.0000 0.09830  0.64170  0.79950  Biso   1.000  C
  C567     1.0000 0.10970  0.55640  0.81210  Biso   1.000  C
  C568     1.0000 0.13950  0.55500  0.85800  Biso   1.000  C
  C569     1.0000 0.15040  0.62730  0.87780  Biso   1.000  C
  C570     1.0000 0.13800  0.71320  0.86410  Biso   1.000  C
  C571     1.0000 0.03090  0.70420  0.70000  Biso   1.000  C
  C572     1.0000 0.01620  0.61760  0.68380  Biso   1.000  C
  H600     1.0000 0.02630  0.56620  0.70010  Biso   1.000  H
  C573     1.0000 0.98890  0.60700  0.64650  Biso   1.000  C
  H601     1.0000 0.97910  0.54910  0.63830  Biso   1.000  H
  C574     1.0000 0.97450  0.68100  0.61940  Biso   1.000  C
  C575     1.0000 0.98980  0.76530  0.63390  Biso   1.000  C
  C576     1.0000 0.01410  0.77340  0.67240  Biso   1.000  C
  H602     1.0000 0.02090  0.83220  0.68230  Biso   1.000  H
  O58      1.0000 0.09990  0.87890  0.82150  Biso   1.000  O
  O59      1.0000 0.10410  0.48420  0.79100  Biso   1.000  O
  C577     1.0000 0.06520  0.44100  0.79020  Biso   1.000  C
  H603     1.0000 0.06400  0.38580  0.77300  Biso   1.000  H
  H604     1.0000 0.04430  0.48160  0.77610  Biso   1.000  H
  H605     1.0000 0.06150  0.42830  0.82110  Biso   1.000  H
  O60      1.0000 0.14790  0.46530  0.87130  Biso   1.000  O
  C578     1.0000 0.18490  0.43890  0.87720  Biso   1.000  C
  H606     1.0000 0.18640  0.37620  0.88630  Biso   1.000  H
  H607     1.0000 0.20060  0.47510  0.90070  Biso   1.000  H
  H608     1.0000 0.19520  0.44570  0.84900  Biso   1.000  H
  O61      1.0000 0.17620  0.61910  0.91860  Biso   1.000  O
  C579     1.0000 0.20880  0.67800  0.93370  Biso   1.000  C
  H609     1.0000 0.22250  0.65850  0.96320  Biso   1.000  H
  H610     1.0000 0.19900  0.73870  0.93590  Biso   1.000  H
  H611     1.0000 0.22710  0.67670  0.91210  Biso   1.000  H
  O62      1.0000 0.15070  0.78700  0.88520  Biso   1.000  O
  C580     1.0000 0.13010  0.82800  0.91770  Biso   1.000  C
  H612     1.0000 0.14410  0.88170  0.92960  Biso   1.000  H
  H613     1.0000 0.12880  0.78600  0.94230  Biso   1.000  H
  H614     1.0000 0.10330  0.84340  0.90320  Biso   1.000  H
  O63      1.0000 0.94900  0.67490  0.58240  Biso   1.000  O
  C581     1.0000 0.93190  0.58990  0.56880  Biso   1.000  C
  H615     1.0000 0.91350  0.59650  0.54050  Biso   1.000  H
  H616     1.0000 0.91790  0.56720  0.59220  Biso   1.000  H
  H617     1.0000 0.95280  0.54800  0.56460  Biso   1.000  H
  O64      1.0000 0.97460  0.83010  0.60410  Biso   1.000  O
  C582     1.0000 0.98130  0.91350  0.61630  Biso   1.000  C
  H618     1.0000 0.96900  0.95290  0.59210  Biso   1.000  H
  H619     1.0000 0.00980  0.92430  0.62240  Biso   1.000  H
  H620     1.0000 0.97030  0.92530  0.64360  Biso   1.000  H
  C583     1.0000 0.09800  0.42800  0.77200  Biso   1.000  C
  H621     1.0000 0.10130  0.46850  0.74740  Biso   1.000  H
  H622     1.0000 0.09590  0.36650  0.76010  Biso   1.000  H
  C584     1.0000 0.13450  0.43400  0.80800  Biso   1.000  C
  H623     1.0000 0.13660  0.37820  0.82610  Biso   1.000  H
  H624     1.0000 0.15780  0.43670  0.79300  Biso   1.000  H
  C585     1.0000 0.13580  0.51300  0.84000  Biso   1.000  C
  H625     1.0000 0.15880  0.50760  0.86470  Biso   1.000  H
  H626     1.0000 0.13830  0.56910  0.82390  Biso   1.000  H
  C586     1.0000 0.09700  0.51300  0.86000  Biso   1.000  C
  H627     1.0000 0.09790  0.55990  0.88360  Biso   1.000  H
  H628     1.0000 0.09310  0.45470  0.87410  Biso   1.000  H
  C587     1.0000 0.06400  0.53200  0.82000  Biso   1.000  C
  H629     1.0000 0.06970  0.58580  0.80400  Biso   1.000  H
  H630     1.0000 0.03850  0.54200  0.83150  Biso   1.000  H
  C588     1.0000 0.05960  0.45100  0.78900  Biso   1.000  C
  H631     1.0000 0.03910  0.46330  0.76220  Biso   1.000  H
  H632     1.0000 0.05090  0.39880  0.80450  Biso   1.000  H
  C589     1.0000 0.02600  0.69900  0.66300  Biso   1.000  C
  H633     1.0000 0.04040  0.65760  0.64660  Biso   1.000  H
  H634     1.0000 0.99710  0.69000  0.65210  Biso   1.000  H
  C590     1.0000 0.03700  0.79600  0.65300  Biso   1.000  C
  H635     1.0000 0.06450  0.79760  0.64870  Biso   1.000  H
  H636     1.0000 0.02000  0.81680  0.62530  Biso   1.000  H
  C591     1.0000 0.03100  0.85700  0.69200  Biso   1.000  C
  H637     1.0000 0.03440  0.92010  0.68380  Biso   1.000  H
  H638     1.0000 0.00470  0.84950  0.69990  Biso   1.000  H
  C592     1.0000 0.06300  0.83400  0.73400  Biso   1.000  C
  H639     1.0000 0.08700  0.86800  0.73230  Biso   1.000  H
  H640     1.0000 0.05280  0.85220  0.76150  Biso   1.000  H
  C593     1.0000 0.07100  0.73400  0.73500  Biso   1.000  C
  H641     1.0000 0.07930  0.71480  0.76680  Biso   1.000  H
  H642     1.0000 0.09360  0.72180  0.71900  Biso   1.000  H
  C594     1.0000 0.03500  0.68200  0.71300  Biso   1.000  C
  H643     1.0000 0.04010  0.61710  0.71860  Biso   1.000  H
  H644     1.0000 0.01240  0.69850  0.72760  Biso   1.000  H
  C595     1.0000 0.15500  0.79200  0.93100  Biso   1.000  C
  H645     1.0000 0.17710  0.74890  0.93750  Biso   1.000  H
  H646     1.0000 0.15530  0.83000  0.95780  Biso   1.000  H
  C596     1.0000 0.16000  0.85000  0.89000  Biso   1.000  C
  H647     1.0000 0.15900  0.91370  0.89790  Biso   1.000  H
  H648     1.0000 0.18630  0.83820  0.88150  Biso   1.000  H
  C597     1.0000 0.12700  0.82600  0.85100  Biso   1.000  C
  H649     1.0000 0.12680  0.76140  0.84550  Biso   1.000  H
  H650     1.0000 0.13190  0.85660  0.82310  Biso   1.000  H
  C598     1.0000 0.08800  0.85700  0.86300  Biso   1.000  C
  H651     1.0000 0.08770  0.92180  0.86770  Biso   1.000  H
  H652     1.0000 0.06590  0.84210  0.83790  Biso   1.000  H
  C599     1.0000 0.08100  0.80800  0.90600  Biso   1.000  C
  H653     1.0000 0.05600  0.77520  0.90080  Biso   1.000  H
  H654     1.0000 0.08060  0.85140  0.93060  Biso   1.000  H
  C600     1.0000 0.11600  0.74200  0.92000  Biso   1.000  C
  H655     1.0000 0.11100  0.70730  0.94600  Biso   1.000  H
  H656     1.0000 0.11670  0.70030  0.89450  Biso   1.000  H
