data_image0
_cell_length_a       27.819
_cell_length_b       27.819
_cell_length_c       12.613
_cell_angle_alpha    90
_cell_angle_beta     90
_cell_angle_gamma    120

_symmetry_space_group_name_H-M    "P 1"
_symmetry_int_tables_number       1

loop_
  _symmetry_equiv_pos_as_xyz
  'x, y, z'

loop_
  _atom_site_label
  _atom_site_occupancy
  _atom_site_fract_x
  _atom_site_fract_y
  _atom_site_fract_z
  _atom_site_thermal_displace_type
  _atom_site_B_iso_or_equiv
  _atom_site_type_symbol
  O1       1.0000 0.59414  0.08791  0.08130  Biso   1.000  O
  O2       1.0000 0.62080  0.09280  0.91530  Biso   1.000  O
  O3       1.0000 0.59597  0.08815  0.30460  Biso   1.000  O
  O4       1.0000 0.60871  0.07291  0.47010  Biso   1.000  O
  H1       1.0000 0.46140  0.97600  0.21800  Biso   1.000  H
  O5       1.0000 0.62560  0.01289  0.12180  Biso   1.000  O
  H2       1.0000 0.62220  0.04060  0.10700  Biso   1.000  H
  H3       1.0000 0.59580  0.98280  0.11200  Biso   1.000  H
  O6       1.0000 0.77782  0.06117  0.34880  Biso   1.000  O
  H4       1.0000 0.78500  0.05900  0.28490  Biso   1.000  H
  H5       1.0000 0.78000  0.03700  0.38600  Biso   1.000  H
  C1       1.0000 0.59656  0.10350  0.98530  Biso   1.000  C
  H6       1.0000 0.55990  0.17620  0.82700  Biso   1.000  H
  H7       1.0000 0.63420  0.21210  0.01400  Biso   1.000  H
  C2       1.0000 0.59104  0.09295  0.40350  Biso   1.000  C
  H8       1.0000 0.60520  0.15410  0.58100  Biso   1.000  H
  H9       1.0000 0.57360  0.20360  0.40710  Biso   1.000  H
  H10      1.0000 0.51100  0.98200  0.25400  Biso   1.000  H
  O7       1.0000 0.26081  0.42124  0.41463  Biso   1.000  O
  O8       1.0000 0.28747  0.42613  0.24863  Biso   1.000  O
  O9       1.0000 0.26264  0.42148  0.63793  Biso   1.000  O
  O10      1.0000 0.27538  0.40624  0.80343  Biso   1.000  O
  H11      1.0000 0.12807  0.30933  0.55133  Biso   1.000  H
  O11      1.0000 0.29227  0.34622  0.45513  Biso   1.000  O
  H12      1.0000 0.28887  0.37393  0.44033  Biso   1.000  H
  H13      1.0000 0.26247  0.31613  0.44533  Biso   1.000  H
  O12      1.0000 0.44449  0.39450  0.68213  Biso   1.000  O
  H14      1.0000 0.45167  0.39233  0.61823  Biso   1.000  H
  H15      1.0000 0.44667  0.37033  0.71933  Biso   1.000  H
  C3       1.0000 0.26323  0.43683  0.31863  Biso   1.000  C
  H16      1.0000 0.22657  0.50953  0.16033  Biso   1.000  H
  H17      1.0000 0.30087  0.54543  0.34733  Biso   1.000  H
  C4       1.0000 0.25771  0.42628  0.73683  Biso   1.000  C
  H18      1.0000 0.27187  0.48743  0.91433  Biso   1.000  H
  H19      1.0000 0.24027  0.53693  0.74043  Biso   1.000  H
  H20      1.0000 0.17767  0.31533  0.58733  Biso   1.000  H
  O13      1.0000 0.92747  0.75458  0.74797  Biso   1.000  O
  O14      1.0000 0.95413  0.75947  0.58197  Biso   1.000  O
  O15      1.0000 0.92930  0.75482  0.97127  Biso   1.000  O
  O16      1.0000 0.94204  0.73958  0.13677  Biso   1.000  O
  H21      1.0000 0.79473  0.64267  0.88467  Biso   1.000  H
  O17      1.0000 0.95893  0.67956  0.78847  Biso   1.000  O
  H22      1.0000 0.95553  0.70727  0.77367  Biso   1.000  H
  H23      1.0000 0.92913  0.64947  0.77867  Biso   1.000  H
  O18      1.0000 0.11115  0.72784  0.01547  Biso   1.000  O
  H24      1.0000 0.11833  0.72567  0.95157  Biso   1.000  H
  H25      1.0000 0.11333  0.70367  0.05267  Biso   1.000  H
  C5       1.0000 0.92989  0.77017  0.65197  Biso   1.000  C
  H26      1.0000 0.89323  0.84287  0.49367  Biso   1.000  H
  H27      1.0000 0.96753  0.87877  0.68067  Biso   1.000  H
  C6       1.0000 0.92437  0.75962  0.07017  Biso   1.000  C
  H28      1.0000 0.93853  0.82077  0.24767  Biso   1.000  H
  H29      1.0000 0.90693  0.87027  0.07377  Biso   1.000  H
  H30      1.0000 0.84433  0.64867  0.92067  Biso   1.000  H
  O19      1.0000 0.91209  0.50623  0.08130  Biso   1.000  O
  O20      1.0000 0.90720  0.52800  0.91530  Biso   1.000  O
  O21      1.0000 0.91185  0.50782  0.30460  Biso   1.000  O
  O22      1.0000 0.92709  0.53580  0.47010  Biso   1.000  O
  H31      1.0000 0.02400  0.48540  0.21800  Biso   1.000  H
  O23      1.0000 0.98711  0.61271  0.12180  Biso   1.000  O
  H32      1.0000 0.95940  0.58160  0.10700  Biso   1.000  H
  H33      1.0000 0.01720  0.61300  0.11200  Biso   1.000  H
  O24      1.0000 0.93883  0.71665  0.34880  Biso   1.000  O
  H34      1.0000 0.94100  0.72600  0.28490  Biso   1.000  H
  H35      1.0000 0.96300  0.74300  0.38600  Biso   1.000  H
  C7       1.0000 0.89650  0.49306  0.98530  Biso   1.000  C
  H36      1.0000 0.82380  0.38370  0.82700  Biso   1.000  H
  H37      1.0000 0.78790  0.42210  0.01400  Biso   1.000  H
  C8       1.0000 0.90705  0.49809  0.40350  Biso   1.000  C
  H38      1.0000 0.84590  0.45110  0.58100  Biso   1.000  H
  H39      1.0000 0.79640  0.37000  0.40710  Biso   1.000  H
  H40      1.0000 0.01800  0.52900  0.25400  Biso   1.000  H
  O25      1.0000 0.57876  0.83956  0.41463  Biso   1.000  O
  O26      1.0000 0.57387  0.86133  0.24863  Biso   1.000  O
  O27      1.0000 0.57852  0.84115  0.63793  Biso   1.000  O
  O28      1.0000 0.59376  0.86913  0.80343  Biso   1.000  O
  H41      1.0000 0.69067  0.81873  0.55133  Biso   1.000  H
  O29      1.0000 0.65378  0.94604  0.45513  Biso   1.000  O
  H42      1.0000 0.62607  0.91493  0.44033  Biso   1.000  H
  H43      1.0000 0.68387  0.94633  0.44533  Biso   1.000  H
  O30      1.0000 0.60550  0.04998  0.68213  Biso   1.000  O
  H44      1.0000 0.60767  0.05933  0.61823  Biso   1.000  H
  H45      1.0000 0.62967  0.07633  0.71933  Biso   1.000  H
  C9       1.0000 0.56317  0.82639  0.31863  Biso   1.000  C
  H46      1.0000 0.49047  0.71703  0.16033  Biso   1.000  H
  H47      1.0000 0.45457  0.75543  0.34733  Biso   1.000  H
  C10      1.0000 0.57372  0.83142  0.73683  Biso   1.000  C
  H48      1.0000 0.51257  0.78443  0.91433  Biso   1.000  H
  H49      1.0000 0.46307  0.70333  0.74043  Biso   1.000  H
  H50      1.0000 0.68467  0.86233  0.58733  Biso   1.000  H
  O31      1.0000 0.24542  0.17290  0.74797  Biso   1.000  O
  O32      1.0000 0.24053  0.19467  0.58197  Biso   1.000  O
  O33      1.0000 0.24518  0.17449  0.97127  Biso   1.000  O
  O34      1.0000 0.26042  0.20247  0.13677  Biso   1.000  O
  H51      1.0000 0.35733  0.15207  0.88467  Biso   1.000  H
  O35      1.0000 0.32044  0.27938  0.78847  Biso   1.000  O
  H52      1.0000 0.29273  0.24827  0.77367  Biso   1.000  H
  H53      1.0000 0.35053  0.27967  0.77867  Biso   1.000  H
  O36      1.0000 0.27216  0.38332  0.01547  Biso   1.000  O
  H54      1.0000 0.27433  0.39267  0.95157  Biso   1.000  H
  H55      1.0000 0.29633  0.40967  0.05267  Biso   1.000  H
  C11      1.0000 0.22983  0.15973  0.65197  Biso   1.000  C
  H56      1.0000 0.15713  0.05037  0.49367  Biso   1.000  H
  H57      1.0000 0.12123  0.08877  0.68067  Biso   1.000  H
  C12      1.0000 0.24038  0.16476  0.07017  Biso   1.000  C
  H58      1.0000 0.17923  0.11777  0.24767  Biso   1.000  H
  H59      1.0000 0.12973  0.03667  0.07377  Biso   1.000  H
  H60      1.0000 0.35133  0.19567  0.92067  Biso   1.000  H
  O37      1.0000 0.49377  0.40586  0.08130  Biso   1.000  O
  O38      1.0000 0.47200  0.37920  0.91530  Biso   1.000  O
  O39      1.0000 0.49218  0.40403  0.30460  Biso   1.000  O
  O40      1.0000 0.46420  0.39129  0.47010  Biso   1.000  O
  H61      1.0000 0.51460  0.53860  0.21800  Biso   1.000  H
  O41      1.0000 0.38729  0.37440  0.12180  Biso   1.000  O
  H62      1.0000 0.41840  0.37780  0.10700  Biso   1.000  H
  H63      1.0000 0.38700  0.40420  0.11200  Biso   1.000  H
  O42      1.0000 0.28335  0.22218  0.34880  Biso   1.000  O
  H64      1.0000 0.27400  0.21500  0.28490  Biso   1.000  H
  H65      1.0000 0.25700  0.22000  0.38600  Biso   1.000  H
  C13      1.0000 0.50694  0.40344  0.98530  Biso   1.000  C
  H66      1.0000 0.61630  0.44010  0.82700  Biso   1.000  H
  H67      1.0000 0.57790  0.36580  0.01400  Biso   1.000  H
  C14      1.0000 0.50191  0.40896  0.40350  Biso   1.000  C
  H68      1.0000 0.54890  0.39480  0.58100  Biso   1.000  H
  H69      1.0000 0.63000  0.42640  0.40710  Biso   1.000  H
  H70      1.0000 0.47100  0.48900  0.25400  Biso   1.000  H
  O43      1.0000 0.16044  0.73919  0.41463  Biso   1.000  O
  O44      1.0000 0.13867  0.71253  0.24863  Biso   1.000  O
  O45      1.0000 0.15885  0.73736  0.63793  Biso   1.000  O
  O46      1.0000 0.13087  0.72462  0.80343  Biso   1.000  O
  H71      1.0000 0.18127  0.87193  0.55133  Biso   1.000  H
  O47      1.0000 0.05396  0.70773  0.45513  Biso   1.000  O
  H72      1.0000 0.08507  0.71113  0.44033  Biso   1.000  H
  H73      1.0000 0.05367  0.73753  0.44533  Biso   1.000  H
  O48      1.0000 0.95002  0.55551  0.68213  Biso   1.000  O
  H74      1.0000 0.94067  0.54833  0.61823  Biso   1.000  H
  H75      1.0000 0.92367  0.55333  0.71933  Biso   1.000  H
  C15      1.0000 0.17361  0.73677  0.31863  Biso   1.000  C
  H76      1.0000 0.28297  0.77343  0.16033  Biso   1.000  H
  H77      1.0000 0.24457  0.69913  0.34733  Biso   1.000  H
  C16      1.0000 0.16858  0.74229  0.73683  Biso   1.000  C
  H78      1.0000 0.21557  0.72813  0.91433  Biso   1.000  H
  H79      1.0000 0.29667  0.75973  0.74043  Biso   1.000  H
  H80      1.0000 0.13767  0.82233  0.58733  Biso   1.000  H
  O49      1.0000 0.82710  0.07253  0.74797  Biso   1.000  O
  O50      1.0000 0.80533  0.04587  0.58197  Biso   1.000  O
  O51      1.0000 0.82551  0.07070  0.97127  Biso   1.000  O
  O52      1.0000 0.79753  0.05796  0.13677  Biso   1.000  O
  H81      1.0000 0.84793  0.20527  0.88467  Biso   1.000  H
  O53      1.0000 0.72062  0.04107  0.78847  Biso   1.000  O
  H82      1.0000 0.75173  0.04447  0.77367  Biso   1.000  H
  H83      1.0000 0.72033  0.07087  0.77867  Biso   1.000  H
  O54      1.0000 0.61668  0.88885  0.01547  Biso   1.000  O
  H84      1.0000 0.60733  0.88167  0.95157  Biso   1.000  H
  H85      1.0000 0.59033  0.88667  0.05267  Biso   1.000  H
  C17      1.0000 0.84027  0.07011  0.65197  Biso   1.000  C
  H86      1.0000 0.94963  0.10677  0.49367  Biso   1.000  H
  H87      1.0000 0.91123  0.03247  0.68067  Biso   1.000  H
  C18      1.0000 0.83524  0.07563  0.07017  Biso   1.000  C
  H88      1.0000 0.88223  0.06147  0.24767  Biso   1.000  H
  H89      1.0000 0.96333  0.09307  0.07377  Biso   1.000  H
  H90      1.0000 0.80433  0.15567  0.92067  Biso   1.000  H
  O55      1.0000 0.08791  0.59414  0.91870  Biso   1.000  O
  O56      1.0000 0.09280  0.62080  0.08470  Biso   1.000  O
  O57      1.0000 0.08815  0.59597  0.69540  Biso   1.000  O
  O58      1.0000 0.07291  0.60871  0.52990  Biso   1.000  O
  H91      1.0000 0.97600  0.46140  0.78200  Biso   1.000  H
  O59      1.0000 0.01289  0.62560  0.87820  Biso   1.000  O
  H92      1.0000 0.04060  0.62220  0.89300  Biso   1.000  H
  H93      1.0000 0.98280  0.59580  0.88800  Biso   1.000  H
  O60      1.0000 0.06117  0.77782  0.65120  Biso   1.000  O
  H94      1.0000 0.05900  0.78500  0.71510  Biso   1.000  H
  H95      1.0000 0.03700  0.78000  0.61400  Biso   1.000  H
  C19      1.0000 0.10350  0.59656  0.01470  Biso   1.000  C
  H96      1.0000 0.17620  0.55990  0.17300  Biso   1.000  H
  H97      1.0000 0.21210  0.63420  0.98600  Biso   1.000  H
  C20      1.0000 0.09295  0.59104  0.59650  Biso   1.000  C
  H98      1.0000 0.15410  0.60520  0.41900  Biso   1.000  H
  H99      1.0000 0.20360  0.57360  0.59290  Biso   1.000  H
  H100     1.0000 0.98200  0.51100  0.74600  Biso   1.000  H
  O61      1.0000 0.75458  0.92747  0.25203  Biso   1.000  O
  O62      1.0000 0.75947  0.95413  0.41803  Biso   1.000  O
  O63      1.0000 0.75482  0.92930  0.02873  Biso   1.000  O
  O64      1.0000 0.73958  0.94204  0.86323  Biso   1.000  O
  H101     1.0000 0.64267  0.79473  0.11533  Biso   1.000  H
  O65      1.0000 0.67956  0.95893  0.21153  Biso   1.000  O
  H102     1.0000 0.70727  0.95553  0.22633  Biso   1.000  H
  H103     1.0000 0.64947  0.92913  0.22133  Biso   1.000  H
  O66      1.0000 0.72784  0.11115  0.98453  Biso   1.000  O
  H104     1.0000 0.72567  0.11833  0.04843  Biso   1.000  H
  H105     1.0000 0.70367  0.11333  0.94733  Biso   1.000  H
  C21      1.0000 0.77017  0.92989  0.34803  Biso   1.000  C
  H106     1.0000 0.84287  0.89323  0.50633  Biso   1.000  H
  H107     1.0000 0.87877  0.96753  0.31933  Biso   1.000  H
  C22      1.0000 0.75962  0.92437  0.92983  Biso   1.000  C
  H108     1.0000 0.82077  0.93853  0.75233  Biso   1.000  H
  H109     1.0000 0.87027  0.90693  0.92623  Biso   1.000  H
  H110     1.0000 0.64867  0.84433  0.07933  Biso   1.000  H
  O67      1.0000 0.42124  0.26081  0.58537  Biso   1.000  O
  O68      1.0000 0.42613  0.28747  0.75137  Biso   1.000  O
  O69      1.0000 0.42148  0.26264  0.36207  Biso   1.000  O
  O70      1.0000 0.40624  0.27538  0.19657  Biso   1.000  O
  H111     1.0000 0.30933  0.12807  0.44867  Biso   1.000  H
  O71      1.0000 0.34622  0.29227  0.54487  Biso   1.000  O
  H112     1.0000 0.37393  0.28887  0.55967  Biso   1.000  H
  H113     1.0000 0.31613  0.26247  0.55467  Biso   1.000  H
  O72      1.0000 0.39450  0.44449  0.31787  Biso   1.000  O
  H114     1.0000 0.39233  0.45167  0.38177  Biso   1.000  H
  H115     1.0000 0.37033  0.44667  0.28067  Biso   1.000  H
  C23      1.0000 0.43683  0.26323  0.68137  Biso   1.000  C
  H116     1.0000 0.50953  0.22657  0.83967  Biso   1.000  H
  H117     1.0000 0.54543  0.30087  0.65267  Biso   1.000  H
  C24      1.0000 0.42628  0.25771  0.26317  Biso   1.000  C
  H118     1.0000 0.48743  0.27187  0.08567  Biso   1.000  H
  H119     1.0000 0.53693  0.24027  0.25957  Biso   1.000  H
  H120     1.0000 0.31533  0.17767  0.41267  Biso   1.000  H
  O73      1.0000 0.50623  0.91209  0.91870  Biso   1.000  O
  O74      1.0000 0.52800  0.90720  0.08470  Biso   1.000  O
  O75      1.0000 0.50782  0.91185  0.69540  Biso   1.000  O
  O76      1.0000 0.53580  0.92709  0.52990  Biso   1.000  O
  H121     1.0000 0.48540  0.02400  0.78200  Biso   1.000  H
  O77      1.0000 0.61271  0.98711  0.87820  Biso   1.000  O
  H122     1.0000 0.58160  0.95940  0.89300  Biso   1.000  H
  H123     1.0000 0.61300  0.01720  0.88800  Biso   1.000  H
  O78      1.0000 0.71665  0.93883  0.65120  Biso   1.000  O
  H124     1.0000 0.72600  0.94100  0.71510  Biso   1.000  H
  H125     1.0000 0.74300  0.96300  0.61400  Biso   1.000  H
  C25      1.0000 0.49306  0.89650  0.01470  Biso   1.000  C
  H126     1.0000 0.38370  0.82380  0.17300  Biso   1.000  H
  H127     1.0000 0.42210  0.78790  0.98600  Biso   1.000  H
  C26      1.0000 0.49809  0.90705  0.59650  Biso   1.000  C
  H128     1.0000 0.45110  0.84590  0.41900  Biso   1.000  H
  H129     1.0000 0.37000  0.79640  0.59290  Biso   1.000  H
  H130     1.0000 0.52900  0.01800  0.74600  Biso   1.000  H
  O79      1.0000 0.17290  0.24542  0.25203  Biso   1.000  O
  O80      1.0000 0.19467  0.24053  0.41803  Biso   1.000  O
  O81      1.0000 0.17449  0.24518  0.02873  Biso   1.000  O
  O82      1.0000 0.20247  0.26042  0.86323  Biso   1.000  O
  H131     1.0000 0.15207  0.35733  0.11533  Biso   1.000  H
  O83      1.0000 0.27938  0.32044  0.21153  Biso   1.000  O
  H132     1.0000 0.24827  0.29273  0.22633  Biso   1.000  H
  H133     1.0000 0.27967  0.35053  0.22133  Biso   1.000  H
  O84      1.0000 0.38332  0.27216  0.98453  Biso   1.000  O
  H134     1.0000 0.39267  0.27433  0.04843  Biso   1.000  H
  H135     1.0000 0.40967  0.29633  0.94733  Biso   1.000  H
  C27      1.0000 0.15973  0.22983  0.34803  Biso   1.000  C
  H136     1.0000 0.05037  0.15713  0.50633  Biso   1.000  H
  H137     1.0000 0.08877  0.12123  0.31933  Biso   1.000  H
  C28      1.0000 0.16476  0.24038  0.92983  Biso   1.000  C
  H138     1.0000 0.11777  0.17923  0.75233  Biso   1.000  H
  H139     1.0000 0.03667  0.12973  0.92623  Biso   1.000  H
  H140     1.0000 0.19567  0.35133  0.07933  Biso   1.000  H
  O85      1.0000 0.83956  0.57876  0.58537  Biso   1.000  O
  O86      1.0000 0.86133  0.57387  0.75137  Biso   1.000  O
  O87      1.0000 0.84115  0.57852  0.36207  Biso   1.000  O
  O88      1.0000 0.86913  0.59376  0.19657  Biso   1.000  O
  H141     1.0000 0.81873  0.69067  0.44867  Biso   1.000  H
  O89      1.0000 0.94604  0.65378  0.54487  Biso   1.000  O
  H142     1.0000 0.91493  0.62607  0.55967  Biso   1.000  H
  H143     1.0000 0.94633  0.68387  0.55467  Biso   1.000  H
  O90      1.0000 0.04998  0.60550  0.31787  Biso   1.000  O
  H144     1.0000 0.05933  0.60767  0.38177  Biso   1.000  H
  H145     1.0000 0.07633  0.62967  0.28067  Biso   1.000  H
  C29      1.0000 0.82639  0.56317  0.68137  Biso   1.000  C
  H146     1.0000 0.71703  0.49047  0.83967  Biso   1.000  H
  H147     1.0000 0.75543  0.45457  0.65267  Biso   1.000  H
  C30      1.0000 0.83142  0.57372  0.26317  Biso   1.000  C
  H148     1.0000 0.78443  0.51257  0.08567  Biso   1.000  H
  H149     1.0000 0.70333  0.46307  0.25957  Biso   1.000  H
  H150     1.0000 0.86233  0.68467  0.41267  Biso   1.000  H
  O91      1.0000 0.40586  0.49377  0.91870  Biso   1.000  O
  O92      1.0000 0.37920  0.47200  0.08470  Biso   1.000  O
  O93      1.0000 0.40403  0.49218  0.69540  Biso   1.000  O
  O94      1.0000 0.39129  0.46420  0.52990  Biso   1.000  O
  H151     1.0000 0.53860  0.51460  0.78200  Biso   1.000  H
  O95      1.0000 0.37440  0.38729  0.87820  Biso   1.000  O
  H152     1.0000 0.37780  0.41840  0.89300  Biso   1.000  H
  H153     1.0000 0.40420  0.38700  0.88800  Biso   1.000  H
  O96      1.0000 0.22218  0.28335  0.65120  Biso   1.000  O
  H154     1.0000 0.21500  0.27400  0.71510  Biso   1.000  H
  H155     1.0000 0.22000  0.25700  0.61400  Biso   1.000  H
  C31      1.0000 0.40344  0.50694  0.01470  Biso   1.000  C
  H156     1.0000 0.44010  0.61630  0.17300  Biso   1.000  H
  H157     1.0000 0.36580  0.57790  0.98600  Biso   1.000  H
  C32      1.0000 0.40896  0.50191  0.59650  Biso   1.000  C
  H158     1.0000 0.39480  0.54890  0.41900  Biso   1.000  H
  H159     1.0000 0.42640  0.63000  0.59290  Biso   1.000  H
  H160     1.0000 0.48900  0.47100  0.74600  Biso   1.000  H
  O97      1.0000 0.07253  0.82710  0.25203  Biso   1.000  O
  O98      1.0000 0.04587  0.80533  0.41803  Biso   1.000  O
  O99      1.0000 0.07070  0.82551  0.02873  Biso   1.000  O
  O100     1.0000 0.05796  0.79753  0.86323  Biso   1.000  O
  H161     1.0000 0.20527  0.84793  0.11533  Biso   1.000  H
  O101     1.0000 0.04107  0.72062  0.21153  Biso   1.000  O
  H162     1.0000 0.04447  0.75173  0.22633  Biso   1.000  H
  H163     1.0000 0.07087  0.72033  0.22133  Biso   1.000  H
  O102     1.0000 0.88885  0.61668  0.98453  Biso   1.000  O
  H164     1.0000 0.88167  0.60733  0.04843  Biso   1.000  H
  H165     1.0000 0.88667  0.59033  0.94733  Biso   1.000  H
  C33      1.0000 0.07011  0.84027  0.34803  Biso   1.000  C
  H166     1.0000 0.10677  0.94963  0.50633  Biso   1.000  H
  H167     1.0000 0.03247  0.91123  0.31933  Biso   1.000  H
  C34      1.0000 0.07563  0.83524  0.92983  Biso   1.000  C
  H168     1.0000 0.06147  0.88223  0.75233  Biso   1.000  H
  H169     1.0000 0.09307  0.96333  0.92623  Biso   1.000  H
  H170     1.0000 0.15567  0.80433  0.07933  Biso   1.000  H
  O103     1.0000 0.73919  0.16044  0.58537  Biso   1.000  O
  O104     1.0000 0.71253  0.13867  0.75137  Biso   1.000  O
  O105     1.0000 0.73736  0.15885  0.36207  Biso   1.000  O
  O106     1.0000 0.72462  0.13087  0.19657  Biso   1.000  O
  H171     1.0000 0.87193  0.18127  0.44867  Biso   1.000  H
  O107     1.0000 0.70773  0.05396  0.54487  Biso   1.000  O
  H172     1.0000 0.71113  0.08507  0.55967  Biso   1.000  H
  H173     1.0000 0.73753  0.05367  0.55467  Biso   1.000  H
  O108     1.0000 0.55551  0.95002  0.31787  Biso   1.000  O
  H174     1.0000 0.54833  0.94067  0.38177  Biso   1.000  H
  H175     1.0000 0.55333  0.92367  0.28067  Biso   1.000  H
  C35      1.0000 0.73677  0.17361  0.68137  Biso   1.000  C
  H176     1.0000 0.77343  0.28297  0.83967  Biso   1.000  H
  H177     1.0000 0.69913  0.24457  0.65267  Biso   1.000  H
  C36      1.0000 0.74229  0.16858  0.26317  Biso   1.000  C
  H178     1.0000 0.72813  0.21557  0.08567  Biso   1.000  H
  H179     1.0000 0.75973  0.29667  0.25957  Biso   1.000  H
  H180     1.0000 0.82233  0.13767  0.41267  Biso   1.000  H
  O109     1.0000 0.40586  0.91209  0.91870  Biso   1.000  O
  O110     1.0000 0.37920  0.90720  0.08470  Biso   1.000  O
  O111     1.0000 0.40403  0.91185  0.69540  Biso   1.000  O
  O112     1.0000 0.39129  0.92709  0.52990  Biso   1.000  O
  H181     1.0000 0.53860  0.02400  0.78200  Biso   1.000  H
  O113     1.0000 0.37440  0.98711  0.87820  Biso   1.000  O
  H182     1.0000 0.37780  0.95940  0.89300  Biso   1.000  H
  H183     1.0000 0.40420  0.01720  0.88800  Biso   1.000  H
  O114     1.0000 0.22218  0.93883  0.65120  Biso   1.000  O
  H184     1.0000 0.21500  0.94100  0.71510  Biso   1.000  H
  H185     1.0000 0.22000  0.96300  0.61400  Biso   1.000  H
  C37      1.0000 0.40344  0.89650  0.01470  Biso   1.000  C
  H186     1.0000 0.44010  0.82380  0.17300  Biso   1.000  H
  H187     1.0000 0.36580  0.78790  0.98600  Biso   1.000  H
  C38      1.0000 0.40896  0.90705  0.59650  Biso   1.000  C
  H188     1.0000 0.39480  0.84590  0.41900  Biso   1.000  H
  H189     1.0000 0.42640  0.79640  0.59290  Biso   1.000  H
  H190     1.0000 0.48900  0.01800  0.74600  Biso   1.000  H
  O115     1.0000 0.07253  0.24542  0.25203  Biso   1.000  O
  O116     1.0000 0.04587  0.24053  0.41803  Biso   1.000  O
  O117     1.0000 0.07070  0.24518  0.02873  Biso   1.000  O
  O118     1.0000 0.05796  0.26042  0.86323  Biso   1.000  O
  H191     1.0000 0.20527  0.35733  0.11533  Biso   1.000  H
  O119     1.0000 0.04107  0.32044  0.21153  Biso   1.000  O
  H192     1.0000 0.04447  0.29273  0.22633  Biso   1.000  H
  H193     1.0000 0.07087  0.35053  0.22133  Biso   1.000  H
  O120     1.0000 0.88885  0.27216  0.98453  Biso   1.000  O
  H194     1.0000 0.88167  0.27433  0.04843  Biso   1.000  H
  H195     1.0000 0.88667  0.29633  0.94733  Biso   1.000  H
  C39      1.0000 0.07011  0.22983  0.34803  Biso   1.000  C
  H196     1.0000 0.10677  0.15713  0.50633  Biso   1.000  H
  H197     1.0000 0.03247  0.12123  0.31933  Biso   1.000  H
  C40      1.0000 0.07563  0.24038  0.92983  Biso   1.000  C
  H198     1.0000 0.06147  0.17923  0.75233  Biso   1.000  H
  H199     1.0000 0.09307  0.12973  0.92623  Biso   1.000  H
  H200     1.0000 0.15567  0.35133  0.07933  Biso   1.000  H
  O121     1.0000 0.73919  0.57876  0.58537  Biso   1.000  O
  O122     1.0000 0.71253  0.57387  0.75137  Biso   1.000  O
  O123     1.0000 0.73736  0.57852  0.36207  Biso   1.000  O
  O124     1.0000 0.72462  0.59376  0.19657  Biso   1.000  O
  H201     1.0000 0.87193  0.69067  0.44867  Biso   1.000  H
  O125     1.0000 0.70773  0.65378  0.54487  Biso   1.000  O
  H202     1.0000 0.71113  0.62607  0.55967  Biso   1.000  H
  H203     1.0000 0.73753  0.68387  0.55467  Biso   1.000  H
  O126     1.0000 0.55551  0.60550  0.31787  Biso   1.000  O
  H204     1.0000 0.54833  0.60767  0.38177  Biso   1.000  H
  H205     1.0000 0.55333  0.62967  0.28067  Biso   1.000  H
  C41      1.0000 0.73677  0.56317  0.68137  Biso   1.000  C
  H206     1.0000 0.77343  0.49047  0.83967  Biso   1.000  H
  H207     1.0000 0.69913  0.45457  0.65267  Biso   1.000  H
  C42      1.0000 0.74229  0.57372  0.26317  Biso   1.000  C
  H208     1.0000 0.72813  0.51257  0.08567  Biso   1.000  H
  H209     1.0000 0.75973  0.46307  0.25957  Biso   1.000  H
  H210     1.0000 0.82233  0.68467  0.41267  Biso   1.000  H
  O127     1.0000 0.08791  0.49377  0.91870  Biso   1.000  O
  O128     1.0000 0.09280  0.47200  0.08470  Biso   1.000  O
  O129     1.0000 0.08815  0.49218  0.69540  Biso   1.000  O
  O130     1.0000 0.07291  0.46420  0.52990  Biso   1.000  O
  H211     1.0000 0.97600  0.51460  0.78200  Biso   1.000  H
  O131     1.0000 0.01289  0.38729  0.87820  Biso   1.000  O
  H212     1.0000 0.04060  0.41840  0.89300  Biso   1.000  H
  H213     1.0000 0.98280  0.38700  0.88800  Biso   1.000  H
  O132     1.0000 0.06117  0.28335  0.65120  Biso   1.000  O
  H214     1.0000 0.05900  0.27400  0.71510  Biso   1.000  H
  H215     1.0000 0.03700  0.25700  0.61400  Biso   1.000  H
  C43      1.0000 0.10350  0.50694  0.01470  Biso   1.000  C
  H216     1.0000 0.17620  0.61630  0.17300  Biso   1.000  H
  H217     1.0000 0.21210  0.57790  0.98600  Biso   1.000  H
  C44      1.0000 0.09295  0.50191  0.59650  Biso   1.000  C
  H218     1.0000 0.15410  0.54890  0.41900  Biso   1.000  H
  H219     1.0000 0.20360  0.63000  0.59290  Biso   1.000  H
  H220     1.0000 0.98200  0.47100  0.74600  Biso   1.000  H
  O133     1.0000 0.75458  0.82710  0.25203  Biso   1.000  O
  O134     1.0000 0.75947  0.80533  0.41803  Biso   1.000  O
  O135     1.0000 0.75482  0.82551  0.02873  Biso   1.000  O
  O136     1.0000 0.73958  0.79753  0.86323  Biso   1.000  O
  H221     1.0000 0.64267  0.84793  0.11533  Biso   1.000  H
  O137     1.0000 0.67956  0.72062  0.21153  Biso   1.000  O
  H222     1.0000 0.70727  0.75173  0.22633  Biso   1.000  H
  H223     1.0000 0.64947  0.72033  0.22133  Biso   1.000  H
  O138     1.0000 0.72784  0.61668  0.98453  Biso   1.000  O
  H224     1.0000 0.72567  0.60733  0.04843  Biso   1.000  H
  H225     1.0000 0.70367  0.59033  0.94733  Biso   1.000  H
  C45      1.0000 0.77017  0.84027  0.34803  Biso   1.000  C
  H226     1.0000 0.84287  0.94963  0.50633  Biso   1.000  H
  H227     1.0000 0.87877  0.91123  0.31933  Biso   1.000  H
  C46      1.0000 0.75962  0.83524  0.92983  Biso   1.000  C
  H228     1.0000 0.82077  0.88223  0.75233  Biso   1.000  H
  H229     1.0000 0.87027  0.96333  0.92623  Biso   1.000  H
  H230     1.0000 0.64867  0.80433  0.07933  Biso   1.000  H
  O139     1.0000 0.42124  0.16044  0.58537  Biso   1.000  O
  O140     1.0000 0.42613  0.13867  0.75137  Biso   1.000  O
  O141     1.0000 0.42148  0.15885  0.36207  Biso   1.000  O
  O142     1.0000 0.40624  0.13087  0.19657  Biso   1.000  O
  H231     1.0000 0.30933  0.18127  0.44867  Biso   1.000  H
  O143     1.0000 0.34622  0.05396  0.54487  Biso   1.000  O
  H232     1.0000 0.37393  0.08507  0.55967  Biso   1.000  H
  H233     1.0000 0.31613  0.05367  0.55467  Biso   1.000  H
  O144     1.0000 0.39450  0.95002  0.31787  Biso   1.000  O
  H234     1.0000 0.39233  0.94067  0.38177  Biso   1.000  H
  H235     1.0000 0.37033  0.92367  0.28067  Biso   1.000  H
  C47      1.0000 0.43683  0.17361  0.68137  Biso   1.000  C
  H236     1.0000 0.50953  0.28297  0.83967  Biso   1.000  H
  H237     1.0000 0.54543  0.24457  0.65267  Biso   1.000  H
  C48      1.0000 0.42628  0.16858  0.26317  Biso   1.000  C
  H238     1.0000 0.48743  0.21557  0.08567  Biso   1.000  H
  H239     1.0000 0.53693  0.29667  0.25957  Biso   1.000  H
  H240     1.0000 0.31533  0.13767  0.41267  Biso   1.000  H
  O145     1.0000 0.50623  0.59414  0.91870  Biso   1.000  O
  O146     1.0000 0.52800  0.62080  0.08470  Biso   1.000  O
  O147     1.0000 0.50782  0.59597  0.69540  Biso   1.000  O
  O148     1.0000 0.53580  0.60871  0.52990  Biso   1.000  O
  H241     1.0000 0.48540  0.46140  0.78200  Biso   1.000  H
  O149     1.0000 0.61271  0.62560  0.87820  Biso   1.000  O
  H242     1.0000 0.58160  0.62220  0.89300  Biso   1.000  H
  H243     1.0000 0.61300  0.59580  0.88800  Biso   1.000  H
  O150     1.0000 0.71665  0.77782  0.65120  Biso   1.000  O
  H244     1.0000 0.72600  0.78500  0.71510  Biso   1.000  H
  H245     1.0000 0.74300  0.78000  0.61400  Biso   1.000  H
  C49      1.0000 0.49306  0.59656  0.01470  Biso   1.000  C
  H246     1.0000 0.38370  0.55990  0.17300  Biso   1.000  H
  H247     1.0000 0.42210  0.63420  0.98600  Biso   1.000  H
  C50      1.0000 0.49809  0.59104  0.59650  Biso   1.000  C
  H248     1.0000 0.45110  0.60520  0.41900  Biso   1.000  H
  H249     1.0000 0.37000  0.57360  0.59290  Biso   1.000  H
  H250     1.0000 0.52900  0.51100  0.74600  Biso   1.000  H
  O151     1.0000 0.17290  0.92747  0.25203  Biso   1.000  O
  O152     1.0000 0.19467  0.95413  0.41803  Biso   1.000  O
  O153     1.0000 0.17449  0.92930  0.02873  Biso   1.000  O
  O154     1.0000 0.20247  0.94204  0.86323  Biso   1.000  O
  H251     1.0000 0.15207  0.79473  0.11533  Biso   1.000  H
  O155     1.0000 0.27938  0.95893  0.21153  Biso   1.000  O
  H252     1.0000 0.24827  0.95553  0.22633  Biso   1.000  H
  H253     1.0000 0.27967  0.92913  0.22133  Biso   1.000  H
  O156     1.0000 0.38332  0.11115  0.98453  Biso   1.000  O
  H254     1.0000 0.39267  0.11833  0.04843  Biso   1.000  H
  H255     1.0000 0.40967  0.11333  0.94733  Biso   1.000  H
  C51      1.0000 0.15973  0.92989  0.34803  Biso   1.000  C
  H256     1.0000 0.05037  0.89323  0.50633  Biso   1.000  H
  H257     1.0000 0.08877  0.96753  0.31933  Biso   1.000  H
  C52      1.0000 0.16476  0.92437  0.92983  Biso   1.000  C
  H258     1.0000 0.11777  0.93853  0.75233  Biso   1.000  H
  H259     1.0000 0.03667  0.90693  0.92623  Biso   1.000  H
  H260     1.0000 0.19567  0.84433  0.07933  Biso   1.000  H
  O157     1.0000 0.83956  0.26081  0.58537  Biso   1.000  O
  O158     1.0000 0.86133  0.28747  0.75137  Biso   1.000  O
  O159     1.0000 0.84115  0.26264  0.36207  Biso   1.000  O
  O160     1.0000 0.86913  0.27538  0.19657  Biso   1.000  O
  H261     1.0000 0.81873  0.12807  0.44867  Biso   1.000  H
  O161     1.0000 0.94604  0.29227  0.54487  Biso   1.000  O
  H262     1.0000 0.91493  0.28887  0.55967  Biso   1.000  H
  H263     1.0000 0.94633  0.26247  0.55467  Biso   1.000  H
  O162     1.0000 0.04998  0.44449  0.31787  Biso   1.000  O
  H264     1.0000 0.05933  0.45167  0.38177  Biso   1.000  H
  H265     1.0000 0.07633  0.44667  0.28067  Biso   1.000  H
  C53      1.0000 0.82639  0.26323  0.68137  Biso   1.000  C
  H266     1.0000 0.71703  0.22657  0.83967  Biso   1.000  H
  H267     1.0000 0.75543  0.30087  0.65267  Biso   1.000  H
  C54      1.0000 0.83142  0.25771  0.26317  Biso   1.000  C
  H268     1.0000 0.78443  0.27187  0.08567  Biso   1.000  H
  H269     1.0000 0.70333  0.24027  0.25957  Biso   1.000  H
  H270     1.0000 0.86233  0.17767  0.41267  Biso   1.000  H
  O163     1.0000 0.91209  0.40586  0.08130  Biso   1.000  O
  O164     1.0000 0.90720  0.37920  0.91530  Biso   1.000  O
  O165     1.0000 0.91185  0.40403  0.30460  Biso   1.000  O
  O166     1.0000 0.92709  0.39129  0.47010  Biso   1.000  O
  H271     1.0000 0.02400  0.53860  0.21800  Biso   1.000  H
  O167     1.0000 0.98711  0.37440  0.12180  Biso   1.000  O
  H272     1.0000 0.95940  0.37780  0.10700  Biso   1.000  H
  H273     1.0000 0.01720  0.40420  0.11200  Biso   1.000  H
  O168     1.0000 0.93883  0.22218  0.34880  Biso   1.000  O
  H274     1.0000 0.94100  0.21500  0.28490  Biso   1.000  H
  H275     1.0000 0.96300  0.22000  0.38600  Biso   1.000  H
  C55      1.0000 0.89650  0.40344  0.98530  Biso   1.000  C
  H276     1.0000 0.82380  0.44010  0.82700  Biso   1.000  H
  H277     1.0000 0.78790  0.36580  0.01400  Biso   1.000  H
  C56      1.0000 0.90705  0.40896  0.40350  Biso   1.000  C
  H278     1.0000 0.84590  0.39480  0.58100  Biso   1.000  H
  H279     1.0000 0.79640  0.42640  0.40710  Biso   1.000  H
  H280     1.0000 0.01800  0.48900  0.25400  Biso   1.000  H
  O169     1.0000 0.57876  0.73919  0.41463  Biso   1.000  O
  O170     1.0000 0.57387  0.71253  0.24863  Biso   1.000  O
  O171     1.0000 0.57852  0.73736  0.63793  Biso   1.000  O
  O172     1.0000 0.59376  0.72462  0.80343  Biso   1.000  O
  H281     1.0000 0.69067  0.87193  0.55133  Biso   1.000  H
  O173     1.0000 0.65378  0.70773  0.45513  Biso   1.000  O
  H282     1.0000 0.62607  0.71113  0.44033  Biso   1.000  H
  H283     1.0000 0.68387  0.73753  0.44533  Biso   1.000  H
  O174     1.0000 0.60550  0.55551  0.68213  Biso   1.000  O
  H284     1.0000 0.60767  0.54833  0.61823  Biso   1.000  H
  H285     1.0000 0.62967  0.55333  0.71933  Biso   1.000  H
  C57      1.0000 0.56317  0.73677  0.31863  Biso   1.000  C
  H286     1.0000 0.49047  0.77343  0.16033  Biso   1.000  H
  H287     1.0000 0.45457  0.69913  0.34733  Biso   1.000  H
  C58      1.0000 0.57372  0.74229  0.73683  Biso   1.000  C
  H288     1.0000 0.51257  0.72813  0.91433  Biso   1.000  H
  H289     1.0000 0.46307  0.75973  0.74043  Biso   1.000  H
  H290     1.0000 0.68467  0.82233  0.58733  Biso   1.000  H
  O175     1.0000 0.24542  0.07253  0.74797  Biso   1.000  O
  O176     1.0000 0.24053  0.04587  0.58197  Biso   1.000  O
  O177     1.0000 0.24518  0.07070  0.97127  Biso   1.000  O
  O178     1.0000 0.26042  0.05796  0.13677  Biso   1.000  O
  H291     1.0000 0.35733  0.20527  0.88467  Biso   1.000  H
  O179     1.0000 0.32044  0.04107  0.78847  Biso   1.000  O
  H292     1.0000 0.29273  0.04447  0.77367  Biso   1.000  H
  H293     1.0000 0.35053  0.07087  0.77867  Biso   1.000  H
  O180     1.0000 0.27216  0.88885  0.01547  Biso   1.000  O
  H294     1.0000 0.27433  0.88167  0.95157  Biso   1.000  H
  H295     1.0000 0.29633  0.88667  0.05267  Biso   1.000  H
  C59      1.0000 0.22983  0.07011  0.65197  Biso   1.000  C
  H296     1.0000 0.15713  0.10677  0.49367  Biso   1.000  H
  H297     1.0000 0.12123  0.03247  0.68067  Biso   1.000  H
  C60      1.0000 0.24038  0.07563  0.07017  Biso   1.000  C
  H298     1.0000 0.17923  0.06147  0.24767  Biso   1.000  H
  H299     1.0000 0.12973  0.09307  0.07377  Biso   1.000  H
  H300     1.0000 0.35133  0.15567  0.92067  Biso   1.000  H
  O181     1.0000 0.49377  0.08791  0.08130  Biso   1.000  O
  O182     1.0000 0.47200  0.09280  0.91530  Biso   1.000  O
  O183     1.0000 0.49218  0.08815  0.30460  Biso   1.000  O
  O184     1.0000 0.46420  0.07291  0.47010  Biso   1.000  O
  H301     1.0000 0.51460  0.97600  0.21800  Biso   1.000  H
  O185     1.0000 0.38729  0.01289  0.12180  Biso   1.000  O
  H302     1.0000 0.41840  0.04060  0.10700  Biso   1.000  H
  H303     1.0000 0.38700  0.98280  0.11200  Biso   1.000  H
  O186     1.0000 0.28335  0.06117  0.34880  Biso   1.000  O
  H304     1.0000 0.27400  0.05900  0.28490  Biso   1.000  H
  H305     1.0000 0.25700  0.03700  0.38600  Biso   1.000  H
  C61      1.0000 0.50694  0.10350  0.98530  Biso   1.000  C
  H306     1.0000 0.61630  0.17620  0.82700  Biso   1.000  H
  H307     1.0000 0.57790  0.21210  0.01400  Biso   1.000  H
  C62      1.0000 0.50191  0.09295  0.40350  Biso   1.000  C
  H308     1.0000 0.54890  0.15410  0.58100  Biso   1.000  H
  H309     1.0000 0.63000  0.20360  0.40710  Biso   1.000  H
  H310     1.0000 0.47100  0.98200  0.25400  Biso   1.000  H
  O187     1.0000 0.16044  0.42124  0.41463  Biso   1.000  O
  O188     1.0000 0.13867  0.42613  0.24863  Biso   1.000  O
  O189     1.0000 0.15885  0.42148  0.63793  Biso   1.000  O
  O190     1.0000 0.13087  0.40624  0.80343  Biso   1.000  O
  H311     1.0000 0.18127  0.30933  0.55133  Biso   1.000  H
  O191     1.0000 0.05396  0.34622  0.45513  Biso   1.000  O
  H312     1.0000 0.08507  0.37393  0.44033  Biso   1.000  H
  H313     1.0000 0.05367  0.31613  0.44533  Biso   1.000  H
  O192     1.0000 0.95002  0.39450  0.68213  Biso   1.000  O
  H314     1.0000 0.94067  0.39233  0.61823  Biso   1.000  H
  H315     1.0000 0.92367  0.37033  0.71933  Biso   1.000  H
  C63      1.0000 0.17361  0.43683  0.31863  Biso   1.000  C
  H316     1.0000 0.28297  0.50953  0.16033  Biso   1.000  H
  H317     1.0000 0.24457  0.54543  0.34733  Biso   1.000  H
  C64      1.0000 0.16858  0.42628  0.73683  Biso   1.000  C
  H318     1.0000 0.21557  0.48743  0.91433  Biso   1.000  H
  H319     1.0000 0.29667  0.53693  0.74043  Biso   1.000  H
  H320     1.0000 0.13767  0.31533  0.58733  Biso   1.000  H
  O193     1.0000 0.82710  0.75458  0.74797  Biso   1.000  O
  O194     1.0000 0.80533  0.75947  0.58197  Biso   1.000  O
  O195     1.0000 0.82551  0.75482  0.97127  Biso   1.000  O
  O196     1.0000 0.79753  0.73958  0.13677  Biso   1.000  O
  H321     1.0000 0.84793  0.64267  0.88467  Biso   1.000  H
  O197     1.0000 0.72062  0.67956  0.78847  Biso   1.000  O
  H322     1.0000 0.75173  0.70727  0.77367  Biso   1.000  H
  H323     1.0000 0.72033  0.64947  0.77867  Biso   1.000  H
  O198     1.0000 0.61668  0.72784  0.01547  Biso   1.000  O
  H324     1.0000 0.60733  0.72567  0.95157  Biso   1.000  H
  H325     1.0000 0.59033  0.70367  0.05267  Biso   1.000  H
  C65      1.0000 0.84027  0.77017  0.65197  Biso   1.000  C
  H326     1.0000 0.94963  0.84287  0.49367  Biso   1.000  H
  H327     1.0000 0.91123  0.87877  0.68067  Biso   1.000  H
  C66      1.0000 0.83524  0.75962  0.07017  Biso   1.000  C
  H328     1.0000 0.88223  0.82077  0.24767  Biso   1.000  H
  H329     1.0000 0.96333  0.87027  0.07377  Biso   1.000  H
  H330     1.0000 0.80433  0.64867  0.92067  Biso   1.000  H
  O199     1.0000 0.59414  0.50623  0.08130  Biso   1.000  O
  O200     1.0000 0.62080  0.52800  0.91530  Biso   1.000  O
  O201     1.0000 0.59597  0.50782  0.30460  Biso   1.000  O
  O202     1.0000 0.60871  0.53580  0.47010  Biso   1.000  O
  H331     1.0000 0.46140  0.48540  0.21800  Biso   1.000  H
  O203     1.0000 0.62560  0.61271  0.12180  Biso   1.000  O
  H332     1.0000 0.62220  0.58160  0.10700  Biso   1.000  H
  H333     1.0000 0.59580  0.61300  0.11200  Biso   1.000  H
  O204     1.0000 0.77782  0.71665  0.34880  Biso   1.000  O
  H334     1.0000 0.78500  0.72600  0.28490  Biso   1.000  H
  H335     1.0000 0.78000  0.74300  0.38600  Biso   1.000  H
  C67      1.0000 0.59656  0.49306  0.98530  Biso   1.000  C
  H336     1.0000 0.55990  0.38370  0.82700  Biso   1.000  H
  H337     1.0000 0.63420  0.42210  0.01400  Biso   1.000  H
  C68      1.0000 0.59104  0.49809  0.40350  Biso   1.000  C
  H338     1.0000 0.60520  0.45110  0.58100  Biso   1.000  H
  H339     1.0000 0.57360  0.37000  0.40710  Biso   1.000  H
  H340     1.0000 0.51100  0.52900  0.25400  Biso   1.000  H
  O205     1.0000 0.26081  0.83956  0.41463  Biso   1.000  O
  O206     1.0000 0.28747  0.86133  0.24863  Biso   1.000  O
  O207     1.0000 0.26264  0.84115  0.63793  Biso   1.000  O
  O208     1.0000 0.27538  0.86913  0.80343  Biso   1.000  O
  H341     1.0000 0.12807  0.81873  0.55133  Biso   1.000  H
  O209     1.0000 0.29227  0.94604  0.45513  Biso   1.000  O
  H342     1.0000 0.28887  0.91493  0.44033  Biso   1.000  H
  H343     1.0000 0.26247  0.94633  0.44533  Biso   1.000  H
  O210     1.0000 0.44449  0.04998  0.68213  Biso   1.000  O
  H344     1.0000 0.45167  0.05933  0.61823  Biso   1.000  H
  H345     1.0000 0.44667  0.07633  0.71933  Biso   1.000  H
  C69      1.0000 0.26323  0.82639  0.31863  Biso   1.000  C
  H346     1.0000 0.22657  0.71703  0.16033  Biso   1.000  H
  H347     1.0000 0.30087  0.75543  0.34733  Biso   1.000  H
  C70      1.0000 0.25771  0.83142  0.73683  Biso   1.000  C
  H348     1.0000 0.27187  0.78443  0.91433  Biso   1.000  H
  H349     1.0000 0.24027  0.70333  0.74043  Biso   1.000  H
  H350     1.0000 0.17767  0.86233  0.58733  Biso   1.000  H
  O211     1.0000 0.92747  0.17290  0.74797  Biso   1.000  O
  O212     1.0000 0.95413  0.19467  0.58197  Biso   1.000  O
  O213     1.0000 0.92930  0.17449  0.97127  Biso   1.000  O
  O214     1.0000 0.94204  0.20247  0.13677  Biso   1.000  O
  H351     1.0000 0.79473  0.15207  0.88467  Biso   1.000  H
  O215     1.0000 0.95893  0.27938  0.78847  Biso   1.000  O
  H352     1.0000 0.95553  0.24827  0.77367  Biso   1.000  H
  H353     1.0000 0.92913  0.27967  0.77867  Biso   1.000  H
  O216     1.0000 0.11115  0.38332  0.01547  Biso   1.000  O
  H354     1.0000 0.11833  0.39267  0.95157  Biso   1.000  H
  H355     1.0000 0.11333  0.40967  0.05267  Biso   1.000  H
  C71      1.0000 0.92989  0.15973  0.65197  Biso   1.000  C
  H356     1.0000 0.89323  0.05037  0.49367  Biso   1.000  H
  H357     1.0000 0.96753  0.08877  0.68067  Biso   1.000  H
  C72      1.0000 0.92437  0.16476  0.07017  Biso   1.000  C
  H358     1.0000 0.93853  0.11777  0.24767  Biso   1.000  H
  H359     1.0000 0.90693  0.03667  0.07377  Biso   1.000  H
  H360     1.0000 0.84433  0.19567  0.92067  Biso   1.000  H
  Ba1      1.0000 0.66667  0.03962  0.33333  Biso   1.000  Ba
  Ba2      1.0000 0.96038  0.62704  0.33333  Biso   1.000  Ba
  Ba3      1.0000 0.37296  0.33333  0.33333  Biso   1.000  Ba
  Ba4      1.0000 0.03962  0.66667  0.66667  Biso   1.000  Ba
  Ba5      1.0000 0.70629  0.00000  0.00000  Biso   1.000  Ba
  Ba6      1.0000 0.62704  0.96038  0.66667  Biso   1.000  Ba
  Ba7      1.0000 0.29371  0.29371  0.00000  Biso   1.000  Ba
  Ba8      1.0000 0.33333  0.37296  0.66667  Biso   1.000  Ba
  Ba9      1.0000 0.00000  0.70629  0.00000  Biso   1.000  Ba
  Ba10     1.0000 0.33333  0.96038  0.66667  Biso   1.000  Ba
  Ba11     1.0000 0.00000  0.29371  0.00000  Biso   1.000  Ba
  Ba12     1.0000 0.03962  0.37296  0.66667  Biso   1.000  Ba
  Ba13     1.0000 0.70629  0.70629  0.00000  Biso   1.000  Ba
  Ba14     1.0000 0.62704  0.66667  0.66667  Biso   1.000  Ba
  Ba15     1.0000 0.29371  0.00000  0.00000  Biso   1.000  Ba
  Ba16     1.0000 0.96038  0.33333  0.33333  Biso   1.000  Ba
  Ba17     1.0000 0.37296  0.03962  0.33333  Biso   1.000  Ba
  Ba18     1.0000 0.66667  0.62704  0.33333  Biso   1.000  Ba
  Zn1      1.0000 0.53775  0.07550  0.19346  Biso   1.000  Zn
  O217     1.0000 0.49590  0.99180  0.20940  Biso   1.000  O
  C73      1.0000 0.56905  0.13810  0.95860  Biso   1.000  C
  C74      1.0000 0.57735  0.15470  0.84210  Biso   1.000  C
  H361     1.0000 0.56095  0.12190  0.79880  Biso   1.000  H
  C75      1.0000 0.59520  0.19040  0.02880  Biso   1.000  C
  H362     1.0000 0.58985  0.17970  0.10210  Biso   1.000  H
  C76      1.0000 0.56305  0.12610  0.44080  Biso   1.000  C
  C77      1.0000 0.56690  0.13380  0.56020  Biso   1.000  C
  H363     1.0000 0.54905  0.09810  0.59420  Biso   1.000  H
  C78      1.0000 0.59165  0.18330  0.38630  Biso   1.000  C
  H364     1.0000 0.58920  0.17840  0.31070  Biso   1.000  H
  Zn2      1.0000 0.20442  0.40883  0.52679  Biso   1.000  Zn
  O218     1.0000 0.16257  0.32513  0.54273  Biso   1.000  O
  C79      1.0000 0.23572  0.47143  0.29193  Biso   1.000  C
  C80      1.0000 0.24402  0.48803  0.17543  Biso   1.000  C
  H365     1.0000 0.22762  0.45523  0.13213  Biso   1.000  H
  C81      1.0000 0.26187  0.52373  0.36213  Biso   1.000  C
  H366     1.0000 0.25652  0.51303  0.43543  Biso   1.000  H
  C82      1.0000 0.22972  0.45943  0.77413  Biso   1.000  C
  C83      1.0000 0.23357  0.46713  0.89353  Biso   1.000  C
  H367     1.0000 0.21572  0.43143  0.92753  Biso   1.000  H
  C84      1.0000 0.25832  0.51663  0.71963  Biso   1.000  C
  H368     1.0000 0.25587  0.51173  0.64403  Biso   1.000  H
  Zn3      1.0000 0.87108  0.74217  0.86013  Biso   1.000  Zn
  O219     1.0000 0.82923  0.65847  0.87607  Biso   1.000  O
  C85      1.0000 0.90238  0.80477  0.62527  Biso   1.000  C
  C86      1.0000 0.91068  0.82137  0.50877  Biso   1.000  C
  H369     1.0000 0.89428  0.78857  0.46547  Biso   1.000  H
  C87      1.0000 0.92853  0.85707  0.69547  Biso   1.000  C
  H370     1.0000 0.92318  0.84637  0.76877  Biso   1.000  H
  C88      1.0000 0.89638  0.79277  0.10747  Biso   1.000  C
  C89      1.0000 0.90023  0.80047  0.22687  Biso   1.000  C
  H371     1.0000 0.88238  0.76477  0.26087  Biso   1.000  H
  C90      1.0000 0.92498  0.84997  0.05297  Biso   1.000  C
  H372     1.0000 0.92253  0.84507  0.97737  Biso   1.000  H
  Zn4      1.0000 0.92450  0.46225  0.19346  Biso   1.000  Zn
  O220     1.0000 0.00820  0.50410  0.20940  Biso   1.000  O
  C91      1.0000 0.86190  0.43095  0.95860  Biso   1.000  C
  C92      1.0000 0.84530  0.42265  0.84210  Biso   1.000  C
  H373     1.0000 0.87810  0.43905  0.79880  Biso   1.000  H
  C93      1.0000 0.80960  0.40480  0.02880  Biso   1.000  C
  H374     1.0000 0.82030  0.41015  0.10210  Biso   1.000  H
  C94      1.0000 0.87390  0.43695  0.44080  Biso   1.000  C
  C95      1.0000 0.86620  0.43310  0.56020  Biso   1.000  C
  H375     1.0000 0.90190  0.45095  0.59420  Biso   1.000  H
  C96      1.0000 0.81670  0.40835  0.38630  Biso   1.000  C
  H376     1.0000 0.82160  0.41080  0.31070  Biso   1.000  H
  Zn5      1.0000 0.59117  0.79558  0.52679  Biso   1.000  Zn
  O221     1.0000 0.67487  0.83743  0.54273  Biso   1.000  O
  C97      1.0000 0.52857  0.76428  0.29193  Biso   1.000  C
  C98      1.0000 0.51197  0.75598  0.17543  Biso   1.000  C
  H377     1.0000 0.54477  0.77238  0.13213  Biso   1.000  H
  C99      1.0000 0.47627  0.73813  0.36213  Biso   1.000  C
  H378     1.0000 0.48697  0.74348  0.43543  Biso   1.000  H
  C100     1.0000 0.54057  0.77028  0.77413  Biso   1.000  C
  C101     1.0000 0.53287  0.76643  0.89353  Biso   1.000  C
  H379     1.0000 0.56857  0.78428  0.92753  Biso   1.000  H
  C102     1.0000 0.48337  0.74168  0.71963  Biso   1.000  C
  H380     1.0000 0.48827  0.74413  0.64403  Biso   1.000  H
  Zn6      1.0000 0.25783  0.12892  0.86013  Biso   1.000  Zn
  O222     1.0000 0.34153  0.17077  0.87607  Biso   1.000  O
  C103     1.0000 0.19523  0.09762  0.62527  Biso   1.000  C
  C104     1.0000 0.17863  0.08932  0.50877  Biso   1.000  C
  H381     1.0000 0.21143  0.10572  0.46547  Biso   1.000  H
  C105     1.0000 0.14293  0.07147  0.69547  Biso   1.000  C
  H382     1.0000 0.15363  0.07682  0.76877  Biso   1.000  H
  C106     1.0000 0.20723  0.10362  0.10747  Biso   1.000  C
  C107     1.0000 0.19953  0.09977  0.22687  Biso   1.000  C
  H383     1.0000 0.23523  0.11762  0.26087  Biso   1.000  H
  C108     1.0000 0.15003  0.07502  0.05297  Biso   1.000  C
  H384     1.0000 0.15493  0.07747  0.97737  Biso   1.000  H
  Zn7      1.0000 0.53775  0.46225  0.19346  Biso   1.000  Zn
  O223     1.0000 0.49590  0.50410  0.20940  Biso   1.000  O
  C109     1.0000 0.56905  0.43095  0.95860  Biso   1.000  C
  C110     1.0000 0.57735  0.42265  0.84210  Biso   1.000  C
  H385     1.0000 0.56095  0.43905  0.79880  Biso   1.000  H
  C111     1.0000 0.59520  0.40480  0.02880  Biso   1.000  C
  H386     1.0000 0.58985  0.41015  0.10210  Biso   1.000  H
  C112     1.0000 0.56305  0.43695  0.44080  Biso   1.000  C
  C113     1.0000 0.56690  0.43310  0.56020  Biso   1.000  C
  H387     1.0000 0.54905  0.45095  0.59420  Biso   1.000  H
  C114     1.0000 0.59165  0.40835  0.38630  Biso   1.000  C
  H388     1.0000 0.58920  0.41080  0.31070  Biso   1.000  H
  Zn8      1.0000 0.20442  0.79558  0.52679  Biso   1.000  Zn
  O224     1.0000 0.16257  0.83743  0.54273  Biso   1.000  O
  C115     1.0000 0.23572  0.76428  0.29193  Biso   1.000  C
  C116     1.0000 0.24402  0.75598  0.17543  Biso   1.000  C
  H389     1.0000 0.22762  0.77238  0.13213  Biso   1.000  H
  C117     1.0000 0.26187  0.73813  0.36213  Biso   1.000  C
  H390     1.0000 0.25652  0.74348  0.43543  Biso   1.000  H
  C118     1.0000 0.22972  0.77028  0.77413  Biso   1.000  C
  C119     1.0000 0.23357  0.76643  0.89353  Biso   1.000  C
  H391     1.0000 0.21572  0.78428  0.92753  Biso   1.000  H
  C120     1.0000 0.25832  0.74168  0.71963  Biso   1.000  C
  H392     1.0000 0.25587  0.74413  0.64403  Biso   1.000  H
  Zn9      1.0000 0.87108  0.12892  0.86013  Biso   1.000  Zn
  O225     1.0000 0.82923  0.17077  0.87607  Biso   1.000  O
  C121     1.0000 0.90238  0.09762  0.62527  Biso   1.000  C
  C122     1.0000 0.91068  0.08932  0.50877  Biso   1.000  C
  H393     1.0000 0.89428  0.10572  0.46547  Biso   1.000  H
  C123     1.0000 0.92853  0.07147  0.69547  Biso   1.000  C
  H394     1.0000 0.92318  0.07682  0.76877  Biso   1.000  H
  C124     1.0000 0.89638  0.10362  0.10747  Biso   1.000  C
  C125     1.0000 0.90023  0.09977  0.22687  Biso   1.000  C
  H395     1.0000 0.88238  0.11762  0.26087  Biso   1.000  H
  C126     1.0000 0.92498  0.07502  0.05297  Biso   1.000  C
  H396     1.0000 0.92253  0.07747  0.97737  Biso   1.000  H
  Zn10     1.0000 0.07550  0.53775  0.80654  Biso   1.000  Zn
  O226     1.0000 0.99180  0.49590  0.79060  Biso   1.000  O
  C127     1.0000 0.13810  0.56905  0.04140  Biso   1.000  C
  C128     1.0000 0.15470  0.57735  0.15790  Biso   1.000  C
  H397     1.0000 0.12190  0.56095  0.20120  Biso   1.000  H
  C129     1.0000 0.19040  0.59520  0.97120  Biso   1.000  C
  H398     1.0000 0.17970  0.58985  0.89790  Biso   1.000  H
  C130     1.0000 0.12610  0.56305  0.55920  Biso   1.000  C
  C131     1.0000 0.13380  0.56690  0.43980  Biso   1.000  C
  H399     1.0000 0.09810  0.54905  0.40580  Biso   1.000  H
  C132     1.0000 0.18330  0.59165  0.61370  Biso   1.000  C
  H400     1.0000 0.17840  0.58920  0.68930  Biso   1.000  H
  Zn11     1.0000 0.74217  0.87108  0.13987  Biso   1.000  Zn
  O227     1.0000 0.65847  0.82923  0.12393  Biso   1.000  O
  C133     1.0000 0.80477  0.90238  0.37473  Biso   1.000  C
  C134     1.0000 0.82137  0.91068  0.49123  Biso   1.000  C
  H401     1.0000 0.78857  0.89428  0.53453  Biso   1.000  H
  C135     1.0000 0.85707  0.92853  0.30453  Biso   1.000  C
  H402     1.0000 0.84637  0.92318  0.23123  Biso   1.000  H
  C136     1.0000 0.79277  0.89638  0.89253  Biso   1.000  C
  C137     1.0000 0.80047  0.90023  0.77313  Biso   1.000  C
  H403     1.0000 0.76477  0.88238  0.73913  Biso   1.000  H
  C138     1.0000 0.84997  0.92498  0.94703  Biso   1.000  C
  H404     1.0000 0.84507  0.92253  0.02263  Biso   1.000  H
  Zn12     1.0000 0.40883  0.20442  0.47321  Biso   1.000  Zn
  O228     1.0000 0.32513  0.16257  0.45727  Biso   1.000  O
  C139     1.0000 0.47143  0.23572  0.70807  Biso   1.000  C
  C140     1.0000 0.48803  0.24402  0.82457  Biso   1.000  C
  H405     1.0000 0.45523  0.22762  0.86787  Biso   1.000  H
  C141     1.0000 0.52373  0.26187  0.63787  Biso   1.000  C
  H406     1.0000 0.51303  0.25652  0.56457  Biso   1.000  H
  C142     1.0000 0.45943  0.22972  0.22587  Biso   1.000  C
  C143     1.0000 0.46713  0.23357  0.10647  Biso   1.000  C
  H407     1.0000 0.43143  0.21572  0.07247  Biso   1.000  H
  C144     1.0000 0.51663  0.25832  0.28037  Biso   1.000  C
  H408     1.0000 0.51173  0.25587  0.35597  Biso   1.000  H
  Zn13     1.0000 0.46225  0.92450  0.80654  Biso   1.000  Zn
  O229     1.0000 0.50410  0.00820  0.79060  Biso   1.000  O
  C145     1.0000 0.43095  0.86190  0.04140  Biso   1.000  C
  C146     1.0000 0.42265  0.84530  0.15790  Biso   1.000  C
  H409     1.0000 0.43905  0.87810  0.20120  Biso   1.000  H
  C147     1.0000 0.40480  0.80960  0.97120  Biso   1.000  C
  H410     1.0000 0.41015  0.82030  0.89790  Biso   1.000  H
  C148     1.0000 0.43695  0.87390  0.55920  Biso   1.000  C
  C149     1.0000 0.43310  0.86620  0.43980  Biso   1.000  C
  H411     1.0000 0.45095  0.90190  0.40580  Biso   1.000  H
  C150     1.0000 0.40835  0.81670  0.61370  Biso   1.000  C
  H412     1.0000 0.41080  0.82160  0.68930  Biso   1.000  H
  Zn14     1.0000 0.12892  0.25783  0.13987  Biso   1.000  Zn
  O230     1.0000 0.17077  0.34153  0.12393  Biso   1.000  O
  C151     1.0000 0.09762  0.19523  0.37473  Biso   1.000  C
  C152     1.0000 0.08932  0.17863  0.49123  Biso   1.000  C
  H413     1.0000 0.10572  0.21143  0.53453  Biso   1.000  H
  C153     1.0000 0.07147  0.14293  0.30453  Biso   1.000  C
  H414     1.0000 0.07682  0.15363  0.23123  Biso   1.000  H
  C154     1.0000 0.10362  0.20723  0.89253  Biso   1.000  C
  C155     1.0000 0.09977  0.19953  0.77313  Biso   1.000  C
  H415     1.0000 0.11762  0.23523  0.73913  Biso   1.000  H
  C156     1.0000 0.07502  0.15003  0.94703  Biso   1.000  C
  H416     1.0000 0.07747  0.15493  0.02263  Biso   1.000  H
  Zn15     1.0000 0.79558  0.59117  0.47321  Biso   1.000  Zn
  O231     1.0000 0.83743  0.67487  0.45727  Biso   1.000  O
  C157     1.0000 0.76428  0.52857  0.70807  Biso   1.000  C
  C158     1.0000 0.75598  0.51197  0.82457  Biso   1.000  C
  H417     1.0000 0.77238  0.54477  0.86787  Biso   1.000  H
  C159     1.0000 0.73813  0.47627  0.63787  Biso   1.000  C
  H418     1.0000 0.74348  0.48697  0.56457  Biso   1.000  H
  C160     1.0000 0.77028  0.54057  0.22587  Biso   1.000  C
  C161     1.0000 0.76643  0.53287  0.10647  Biso   1.000  C
  H419     1.0000 0.78428  0.56857  0.07247  Biso   1.000  H
  C162     1.0000 0.74168  0.48337  0.28037  Biso   1.000  C
  H420     1.0000 0.74413  0.48827  0.35597  Biso   1.000  H
  Zn16     1.0000 0.46225  0.53775  0.80654  Biso   1.000  Zn
  O232     1.0000 0.50410  0.49590  0.79060  Biso   1.000  O
  C163     1.0000 0.43095  0.56905  0.04140  Biso   1.000  C
  C164     1.0000 0.42265  0.57735  0.15790  Biso   1.000  C
  H421     1.0000 0.43905  0.56095  0.20120  Biso   1.000  H
  C165     1.0000 0.40480  0.59520  0.97120  Biso   1.000  C
  H422     1.0000 0.41015  0.58985  0.89790  Biso   1.000  H
  C166     1.0000 0.43695  0.56305  0.55920  Biso   1.000  C
  C167     1.0000 0.43310  0.56690  0.43980  Biso   1.000  C
  H423     1.0000 0.45095  0.54905  0.40580  Biso   1.000  H
  C168     1.0000 0.40835  0.59165  0.61370  Biso   1.000  C
  H424     1.0000 0.41080  0.58920  0.68930  Biso   1.000  H
  Zn17     1.0000 0.12892  0.87108  0.13987  Biso   1.000  Zn
  O233     1.0000 0.17077  0.82923  0.12393  Biso   1.000  O
  C169     1.0000 0.09762  0.90238  0.37473  Biso   1.000  C
  C170     1.0000 0.08932  0.91068  0.49123  Biso   1.000  C
  H425     1.0000 0.10572  0.89428  0.53453  Biso   1.000  H
  C171     1.0000 0.07147  0.92853  0.30453  Biso   1.000  C
  H426     1.0000 0.07682  0.92318  0.23123  Biso   1.000  H
  C172     1.0000 0.10362  0.89638  0.89253  Biso   1.000  C
  C173     1.0000 0.09977  0.90023  0.77313  Biso   1.000  C
  H427     1.0000 0.11762  0.88238  0.73913  Biso   1.000  H
  C174     1.0000 0.07502  0.92498  0.94703  Biso   1.000  C
  H428     1.0000 0.07747  0.92253  0.02263  Biso   1.000  H
  Zn18     1.0000 0.79558  0.20442  0.47321  Biso   1.000  Zn
  O234     1.0000 0.83743  0.16257  0.45727  Biso   1.000  O
  C175     1.0000 0.76428  0.23572  0.70807  Biso   1.000  C
  C176     1.0000 0.75598  0.24402  0.82457  Biso   1.000  C
  H429     1.0000 0.77238  0.22762  0.86787  Biso   1.000  H
  C177     1.0000 0.73813  0.26187  0.63787  Biso   1.000  C
  H430     1.0000 0.74348  0.25652  0.56457  Biso   1.000  H
  C178     1.0000 0.77028  0.22972  0.22587  Biso   1.000  C
  C179     1.0000 0.76643  0.23357  0.10647  Biso   1.000  C
  H431     1.0000 0.78428  0.21572  0.07247  Biso   1.000  H
  C180     1.0000 0.74168  0.25832  0.28037  Biso   1.000  C
  H432     1.0000 0.74413  0.25587  0.35597  Biso   1.000  H
