data_image0
_cell_length_a       20.608
_cell_length_b       20.608
_cell_length_c       22.35
_cell_angle_alpha    90
_cell_angle_beta     90
_cell_angle_gamma    90

_symmetry_space_group_name_H-M    "P 1"
_symmetry_int_tables_number       1

loop_
  _symmetry_equiv_pos_as_xyz
  'x, y, z'

loop_
  _atom_site_label
  _atom_site_occupancy
  _atom_site_fract_x
  _atom_site_fract_y
  _atom_site_fract_z
  _atom_site_thermal_displace_type
  _atom_site_B_iso_or_equiv
  _atom_site_type_symbol
  Cd1      1.0000 0.71886  0.20871  0.11437  Biso   1.000  Cd
  O1       1.0000 0.69660  0.32410  0.11850  Biso   1.000  O
  N1       1.0000 0.61340  0.19860  0.14970  Biso   1.000  N
  O2       1.0000 0.76970  0.24600  0.20560  Biso   1.000  O
  O3       1.0000 0.74700  0.14840  0.21270  Biso   1.000  O
  O4       1.0000 0.79000  0.10030  0.09480  Biso   1.000  O
  O5       1.0000 0.69790  0.08770  0.10100  Biso   1.000  O
  N2       1.0000 0.81530  0.23990  0.07130  Biso   1.000  N
  N3       1.0000 0.67630  0.21870  0.01660  Biso   1.000  N
  C1       1.0000 0.67900  0.35660  0.17150  Biso   1.000  C
  C2       1.0000 0.59790  0.15080  0.18620  Biso   1.000  C
  C3       1.0000 0.56690  0.24160  0.13240  Biso   1.000  C
  N4       1.0000 0.77450  0.19360  0.23540  Biso   1.000  N
  N5       1.0000 0.74620  0.06040  0.10000  Biso   1.000  N
  H1       1.0000 0.66450  0.39980  0.15910  Biso   1.000  H
  H2       1.0000 0.64500  0.33580  0.19550  Biso   1.000  H
  H3       1.0000 0.71860  0.36050  0.19550  Biso   1.000  H
  H4       1.0000 0.63040  0.12070  0.19800  Biso   1.000  H
  C4       1.0000 0.53460  0.14340  0.20770  Biso   1.000  C
  C5       1.0000 0.50510  0.23790  0.15180  Biso   1.000  C
  H5       1.0000 0.57840  0.27550  0.10570  Biso   1.000  H
  O6       1.0000 0.80200  0.18760  0.28310  Biso   1.000  O
  O7       1.0000 0.75310  0.00790  0.10090  Biso   1.000  O
  C6       1.0000 0.52030  0.08810  0.24800  Biso   1.000  C
  C7       1.0000 0.48800  0.18710  0.19130  Biso   1.000  C
  H6       1.0000 0.47370  0.26880  0.13910  Biso   1.000  H
  O8       1.0000 0.46320  0.08740  0.27030  Biso   1.000  O
  O9       1.0000 0.56320  0.04810  0.25730  Biso   1.000  O
  H7       1.0000 0.44490  0.18350  0.20610  Biso   1.000  H
  Cr1      1.0000 0.42236  0.01945  0.31920  Biso   1.000  Cr
  O10      1.0000 0.37040  0.95450  0.36170  Biso   1.000  O
  O11      1.0000 0.39580  0.08960  0.37420  Biso   1.000  O
  O12      1.0000 0.34010  0.04240  0.27350  Biso   1.000  O
  C8       1.0000 0.37310  0.93900  0.41620  Biso   1.000  C
  C9       1.0000 0.42040  0.11360  0.42100  Biso   1.000  C
  C10      1.0000 0.29050  0.99780  0.25650  Biso   1.000  C
  O13      1.0000 0.53630  0.91210  0.45300  Biso   1.000  O
  O14      1.0000 0.41370  0.95880  0.45400  Biso   1.000  O
  C11      1.0000 0.32200  0.89220  0.43730  Biso   1.000  C
  C12      1.0000 0.39540  0.17720  0.44100  Biso   1.000  C
  H8       1.0000 0.28400  0.96650  0.28950  Biso   1.000  H
  H9       1.0000 0.30540  0.97320  0.22110  Biso   1.000  H
  C13      1.0000 0.22830  0.02800  0.24200  Biso   1.000  C
  C14      1.0000 0.32500  0.86710  0.49440  Biso   1.000  C
  C15      1.0000 0.27250  0.87320  0.39980  Biso   1.000  C
  C16      1.0000 0.34290  0.20470  0.41110  Biso   1.000  C
  C17      1.0000 0.42290  0.21030  0.49000  Biso   1.000  C
  H10      1.0000 0.21150  0.04620  0.27980  Biso   1.000  H
  H11      1.0000 0.22630  0.06060  0.21080  Biso   1.000  H
  H12      1.0000 0.20190  0.99020  0.23100  Biso   1.000  H
  H13      1.0000 0.35960  0.88070  0.51960  Biso   1.000  H
  C18      1.0000 0.22590  0.83070  0.42260  Biso   1.000  C
  H14      1.0000 0.27020  0.88850  0.35980  Biso   1.000  H
  H15      1.0000 0.32610  0.18320  0.37680  Biso   1.000  H
  C19      1.0000 0.39330  0.26800  0.50710  Biso   1.000  C
  H16      1.0000 0.46000  0.19400  0.51030  Biso   1.000  H
  C20      1.0000 0.23380  0.80630  0.48030  Biso   1.000  C
  H17      1.0000 0.18940  0.81850  0.39920  Biso   1.000  H
  C21      1.0000 0.34270  0.29160  0.47580  Biso   1.000  C
  H18      1.0000 0.40890  0.29080  0.54110  Biso   1.000  H
  H19      1.0000 0.20320  0.77530  0.49430  Biso   1.000  H
  H20      1.0000 0.32520  0.33240  0.48730  Biso   1.000  H
  N6       1.0000 0.49100  0.12070  0.62810  Biso   1.000  N
  O15      1.0000 0.44720  0.08640  0.64350  Biso   1.000  O
  O16      1.0000 0.53000  0.10550  0.58730  Biso   1.000  O
  O17      1.0000 0.49870  0.17560  0.65740  Biso   1.000  O
  C22      1.0000 0.77100  0.00200  0.26700  Biso   1.000  C
  H21      1.0000 0.76950  0.01040  0.22330  Biso   1.000  H
  H22      1.0000 0.74680  0.03660  0.28740  Biso   1.000  H
  H23      1.0000 0.81570  0.00170  0.28030  Biso   1.000  H
  C23      1.0000 0.72560  0.95800  0.29400  Biso   1.000  C
  H24      1.0000 0.74300  0.91320  0.28800  Biso   1.000  H
  H25      1.0000 0.72520  0.96610  0.33720  Biso   1.000  H
  O18      1.0000 0.73730  0.09550  0.08350  Biso   1.000  O
  C24      1.0000 0.52060  0.05270  0.57370  Biso   1.000  C
  H26      1.0000 0.56300  0.04180  0.59200  Biso   1.000  H
  H27      1.0000 0.52540  0.09170  0.54820  Biso   1.000  H
  C25      1.0000 0.47490  0.06810  0.62020  Biso   1.000  C
  H28      1.0000 0.43280  0.07950  0.60270  Biso   1.000  H
  H29      1.0000 0.46990  0.03010  0.64600  Biso   1.000  H
  H30      1.0000 0.49110  0.10480  0.64390  Biso   1.000  H
  Cd2      1.0000 0.28114  0.79129  0.11437  Biso   1.000  Cd
  O19      1.0000 0.30340  0.67590  0.11850  Biso   1.000  O
  N7       1.0000 0.38660  0.80140  0.14970  Biso   1.000  N
  O20      1.0000 0.23030  0.75400  0.20560  Biso   1.000  O
  O21      1.0000 0.25300  0.85160  0.21270  Biso   1.000  O
  O22      1.0000 0.21000  0.89970  0.09480  Biso   1.000  O
  O23      1.0000 0.30210  0.91230  0.10100  Biso   1.000  O
  N8       1.0000 0.18470  0.76010  0.07130  Biso   1.000  N
  N9       1.0000 0.32370  0.78130  0.01660  Biso   1.000  N
  C26      1.0000 0.32100  0.64340  0.17150  Biso   1.000  C
  C27      1.0000 0.40210  0.84920  0.18620  Biso   1.000  C
  C28      1.0000 0.43310  0.75840  0.13240  Biso   1.000  C
  N10      1.0000 0.22550  0.80640  0.23540  Biso   1.000  N
  N11      1.0000 0.25380  0.93960  0.10000  Biso   1.000  N
  H31      1.0000 0.33550  0.60020  0.15910  Biso   1.000  H
  H32      1.0000 0.35500  0.66420  0.19550  Biso   1.000  H
  H33      1.0000 0.28140  0.63950  0.19550  Biso   1.000  H
  H34      1.0000 0.36960  0.87930  0.19800  Biso   1.000  H
  C29      1.0000 0.46540  0.85660  0.20770  Biso   1.000  C
  C30      1.0000 0.49490  0.76210  0.15180  Biso   1.000  C
  H35      1.0000 0.42160  0.72450  0.10570  Biso   1.000  H
  O24      1.0000 0.19800  0.81240  0.28310  Biso   1.000  O
  O25      1.0000 0.24690  0.99210  0.10090  Biso   1.000  O
  C31      1.0000 0.47970  0.91190  0.24800  Biso   1.000  C
  C32      1.0000 0.51200  0.81290  0.19130  Biso   1.000  C
  H36      1.0000 0.52630  0.73120  0.13910  Biso   1.000  H
  O26      1.0000 0.53680  0.91260  0.27030  Biso   1.000  O
  O27      1.0000 0.43680  0.95190  0.25730  Biso   1.000  O
  H37      1.0000 0.55510  0.81650  0.20610  Biso   1.000  H
  Cr2      1.0000 0.57764  0.98055  0.31920  Biso   1.000  Cr
  O28      1.0000 0.62960  0.04550  0.36170  Biso   1.000  O
  O29      1.0000 0.60420  0.91040  0.37420  Biso   1.000  O
  O30      1.0000 0.65990  0.95760  0.27350  Biso   1.000  O
  C33      1.0000 0.62690  0.06100  0.41620  Biso   1.000  C
  C34      1.0000 0.57960  0.88640  0.42100  Biso   1.000  C
  C35      1.0000 0.70950  0.00220  0.25650  Biso   1.000  C
  O31      1.0000 0.46370  0.08790  0.45300  Biso   1.000  O
  O32      1.0000 0.58630  0.04120  0.45400  Biso   1.000  O
  C36      1.0000 0.67800  0.10780  0.43730  Biso   1.000  C
  C37      1.0000 0.60460  0.82280  0.44100  Biso   1.000  C
  H38      1.0000 0.71600  0.03350  0.28950  Biso   1.000  H
  H39      1.0000 0.69460  0.02680  0.22110  Biso   1.000  H
  C38      1.0000 0.77170  0.97200  0.24200  Biso   1.000  C
  C39      1.0000 0.67500  0.13290  0.49440  Biso   1.000  C
  C40      1.0000 0.72750  0.12680  0.39980  Biso   1.000  C
  C41      1.0000 0.65710  0.79530  0.41110  Biso   1.000  C
  C42      1.0000 0.57710  0.78970  0.49000  Biso   1.000  C
  H40      1.0000 0.78850  0.95380  0.27980  Biso   1.000  H
  H41      1.0000 0.77370  0.93940  0.21080  Biso   1.000  H
  H42      1.0000 0.79810  0.00980  0.23100  Biso   1.000  H
  H43      1.0000 0.64040  0.11930  0.51960  Biso   1.000  H
  C43      1.0000 0.77410  0.16930  0.42260  Biso   1.000  C
  H44      1.0000 0.72980  0.11150  0.35980  Biso   1.000  H
  H45      1.0000 0.67390  0.81680  0.37680  Biso   1.000  H
  C44      1.0000 0.60670  0.73200  0.50710  Biso   1.000  C
  H46      1.0000 0.54000  0.80600  0.51030  Biso   1.000  H
  C45      1.0000 0.76620  0.19370  0.48030  Biso   1.000  C
  H47      1.0000 0.81060  0.18150  0.39920  Biso   1.000  H
  C46      1.0000 0.65730  0.70840  0.47580  Biso   1.000  C
  H48      1.0000 0.59110  0.70920  0.54110  Biso   1.000  H
  H49      1.0000 0.79680  0.22470  0.49430  Biso   1.000  H
  H50      1.0000 0.67480  0.66760  0.48730  Biso   1.000  H
  N12      1.0000 0.50900  0.87930  0.62810  Biso   1.000  N
  O33      1.0000 0.55280  0.91360  0.64350  Biso   1.000  O
  O34      1.0000 0.47000  0.89450  0.58730  Biso   1.000  O
  O35      1.0000 0.50130  0.82440  0.65740  Biso   1.000  O
  C47      1.0000 0.22900  0.99800  0.26700  Biso   1.000  C
  H51      1.0000 0.23050  0.98960  0.22330  Biso   1.000  H
  H52      1.0000 0.25320  0.96340  0.28740  Biso   1.000  H
  H53      1.0000 0.18430  0.99830  0.28030  Biso   1.000  H
  C48      1.0000 0.27440  0.04200  0.29400  Biso   1.000  C
  H54      1.0000 0.25700  0.08680  0.28800  Biso   1.000  H
  H55      1.0000 0.27480  0.03390  0.33720  Biso   1.000  H
  O36      1.0000 0.26270  0.90450  0.08350  Biso   1.000  O
  C49      1.0000 0.47940  0.94730  0.57370  Biso   1.000  C
  H56      1.0000 0.43700  0.95820  0.59200  Biso   1.000  H
  H57      1.0000 0.47460  0.90830  0.54820  Biso   1.000  H
  C50      1.0000 0.52510  0.93190  0.62020  Biso   1.000  C
  H58      1.0000 0.56720  0.92050  0.60270  Biso   1.000  H
  H59      1.0000 0.53010  0.96990  0.64600  Biso   1.000  H
  H60      1.0000 0.50890  0.89520  0.64390  Biso   1.000  H
  Cd3      1.0000 0.20871  0.28114  0.88563  Biso   1.000  Cd
  O37      1.0000 0.32410  0.30340  0.88150  Biso   1.000  O
  N13      1.0000 0.19860  0.38660  0.85030  Biso   1.000  N
  O38      1.0000 0.24600  0.23030  0.79440  Biso   1.000  O
  O39      1.0000 0.14840  0.25300  0.78730  Biso   1.000  O
  O40      1.0000 0.10030  0.21000  0.90520  Biso   1.000  O
  O41      1.0000 0.08770  0.30210  0.89900  Biso   1.000  O
  N14      1.0000 0.23990  0.18470  0.92870  Biso   1.000  N
  N15      1.0000 0.21870  0.32370  0.98340  Biso   1.000  N
  C51      1.0000 0.35660  0.32100  0.82850  Biso   1.000  C
  C52      1.0000 0.15080  0.40210  0.81380  Biso   1.000  C
  C53      1.0000 0.24160  0.43310  0.86760  Biso   1.000  C
  N16      1.0000 0.19360  0.22550  0.76460  Biso   1.000  N
  N17      1.0000 0.06040  0.25380  0.90000  Biso   1.000  N
  H61      1.0000 0.39980  0.33550  0.84090  Biso   1.000  H
  H62      1.0000 0.33580  0.35500  0.80450  Biso   1.000  H
  H63      1.0000 0.36050  0.28140  0.80450  Biso   1.000  H
  H64      1.0000 0.12070  0.36960  0.80200  Biso   1.000  H
  C54      1.0000 0.14340  0.46540  0.79230  Biso   1.000  C
  C55      1.0000 0.23790  0.49490  0.84820  Biso   1.000  C
  H65      1.0000 0.27550  0.42160  0.89430  Biso   1.000  H
  O42      1.0000 0.18760  0.19800  0.71690  Biso   1.000  O
  O43      1.0000 0.00790  0.24690  0.89910  Biso   1.000  O
  C56      1.0000 0.08810  0.47970  0.75200  Biso   1.000  C
  C57      1.0000 0.18710  0.51200  0.80870  Biso   1.000  C
  H66      1.0000 0.26880  0.52630  0.86090  Biso   1.000  H
  O44      1.0000 0.08740  0.53680  0.72970  Biso   1.000  O
  O45      1.0000 0.04810  0.43680  0.74270  Biso   1.000  O
  H67      1.0000 0.18350  0.55510  0.79390  Biso   1.000  H
  Cr3      1.0000 0.01945  0.57764  0.68080  Biso   1.000  Cr
  O46      1.0000 0.95450  0.62960  0.63830  Biso   1.000  O
  O47      1.0000 0.08960  0.60420  0.62580  Biso   1.000  O
  O48      1.0000 0.04240  0.65990  0.72650  Biso   1.000  O
  C58      1.0000 0.93900  0.62690  0.58380  Biso   1.000  C
  C59      1.0000 0.11360  0.57960  0.57900  Biso   1.000  C
  C60      1.0000 0.99780  0.70950  0.74350  Biso   1.000  C
  O49      1.0000 0.91210  0.46370  0.54700  Biso   1.000  O
  O50      1.0000 0.95880  0.58630  0.54600  Biso   1.000  O
  C61      1.0000 0.89220  0.67800  0.56270  Biso   1.000  C
  C62      1.0000 0.17720  0.60460  0.55900  Biso   1.000  C
  H68      1.0000 0.96650  0.71600  0.71050  Biso   1.000  H
  H69      1.0000 0.97320  0.69460  0.77890  Biso   1.000  H
  C63      1.0000 0.02800  0.77170  0.75800  Biso   1.000  C
  C64      1.0000 0.86710  0.67500  0.50560  Biso   1.000  C
  C65      1.0000 0.87320  0.72750  0.60020  Biso   1.000  C
  C66      1.0000 0.20470  0.65710  0.58890  Biso   1.000  C
  C67      1.0000 0.21030  0.57710  0.51000  Biso   1.000  C
  H70      1.0000 0.04620  0.78850  0.72020  Biso   1.000  H
  H71      1.0000 0.06060  0.77370  0.78920  Biso   1.000  H
  H72      1.0000 0.99020  0.79810  0.76900  Biso   1.000  H
  H73      1.0000 0.88070  0.64040  0.48040  Biso   1.000  H
  C68      1.0000 0.83070  0.77410  0.57740  Biso   1.000  C
  H74      1.0000 0.88850  0.72980  0.64020  Biso   1.000  H
  H75      1.0000 0.18320  0.67390  0.62320  Biso   1.000  H
  C69      1.0000 0.26800  0.60670  0.49290  Biso   1.000  C
  H76      1.0000 0.19400  0.54000  0.48970  Biso   1.000  H
  C70      1.0000 0.80630  0.76620  0.51970  Biso   1.000  C
  H77      1.0000 0.81850  0.81060  0.60080  Biso   1.000  H
  C71      1.0000 0.29160  0.65730  0.52420  Biso   1.000  C
  H78      1.0000 0.29080  0.59110  0.45890  Biso   1.000  H
  H79      1.0000 0.77530  0.79680  0.50570  Biso   1.000  H
  H80      1.0000 0.33240  0.67480  0.51270  Biso   1.000  H
  N18      1.0000 0.12070  0.50900  0.37190  Biso   1.000  N
  O51      1.0000 0.08640  0.55280  0.35650  Biso   1.000  O
  O52      1.0000 0.10550  0.47000  0.41270  Biso   1.000  O
  O53      1.0000 0.17560  0.50130  0.34260  Biso   1.000  O
  C72      1.0000 0.00200  0.22900  0.73300  Biso   1.000  C
  H81      1.0000 0.01040  0.23050  0.77670  Biso   1.000  H
  H82      1.0000 0.03660  0.25320  0.71260  Biso   1.000  H
  H83      1.0000 0.00170  0.18430  0.71970  Biso   1.000  H
  C73      1.0000 0.95800  0.27440  0.70600  Biso   1.000  C
  H84      1.0000 0.91320  0.25700  0.71200  Biso   1.000  H
  H85      1.0000 0.96610  0.27480  0.66280  Biso   1.000  H
  O54      1.0000 0.09550  0.26270  0.91650  Biso   1.000  O
  C74      1.0000 0.05270  0.47940  0.42630  Biso   1.000  C
  H86      1.0000 0.04180  0.43700  0.40800  Biso   1.000  H
  H87      1.0000 0.09170  0.47460  0.45180  Biso   1.000  H
  C75      1.0000 0.06810  0.52510  0.37980  Biso   1.000  C
  H88      1.0000 0.07950  0.56720  0.39730  Biso   1.000  H
  H89      1.0000 0.03010  0.53010  0.35400  Biso   1.000  H
  H90      1.0000 0.10480  0.50890  0.35610  Biso   1.000  H
  Cd4      1.0000 0.79129  0.71886  0.88563  Biso   1.000  Cd
  O55      1.0000 0.67590  0.69660  0.88150  Biso   1.000  O
  N19      1.0000 0.80140  0.61340  0.85030  Biso   1.000  N
  O56      1.0000 0.75400  0.76970  0.79440  Biso   1.000  O
  O57      1.0000 0.85160  0.74700  0.78730  Biso   1.000  O
  O58      1.0000 0.89970  0.79000  0.90520  Biso   1.000  O
  O59      1.0000 0.91230  0.69790  0.89900  Biso   1.000  O
  N20      1.0000 0.76010  0.81530  0.92870  Biso   1.000  N
  N21      1.0000 0.78130  0.67630  0.98340  Biso   1.000  N
  C76      1.0000 0.64340  0.67900  0.82850  Biso   1.000  C
  C77      1.0000 0.84920  0.59790  0.81380  Biso   1.000  C
  C78      1.0000 0.75840  0.56690  0.86760  Biso   1.000  C
  N22      1.0000 0.80640  0.77450  0.76460  Biso   1.000  N
  N23      1.0000 0.93960  0.74620  0.90000  Biso   1.000  N
  H91      1.0000 0.60020  0.66450  0.84090  Biso   1.000  H
  H92      1.0000 0.66420  0.64500  0.80450  Biso   1.000  H
  H93      1.0000 0.63950  0.71860  0.80450  Biso   1.000  H
  H94      1.0000 0.87930  0.63040  0.80200  Biso   1.000  H
  C79      1.0000 0.85660  0.53460  0.79230  Biso   1.000  C
  C80      1.0000 0.76210  0.50510  0.84820  Biso   1.000  C
  H95      1.0000 0.72450  0.57840  0.89430  Biso   1.000  H
  O60      1.0000 0.81240  0.80200  0.71690  Biso   1.000  O
  O61      1.0000 0.99210  0.75310  0.89910  Biso   1.000  O
  C81      1.0000 0.91190  0.52030  0.75200  Biso   1.000  C
  C82      1.0000 0.81290  0.48800  0.80870  Biso   1.000  C
  H96      1.0000 0.73120  0.47370  0.86090  Biso   1.000  H
  O62      1.0000 0.91260  0.46320  0.72970  Biso   1.000  O
  O63      1.0000 0.95190  0.56320  0.74270  Biso   1.000  O
  H97      1.0000 0.81650  0.44490  0.79390  Biso   1.000  H
  Cr4      1.0000 0.98055  0.42236  0.68080  Biso   1.000  Cr
  O64      1.0000 0.04550  0.37040  0.63830  Biso   1.000  O
  O65      1.0000 0.91040  0.39580  0.62580  Biso   1.000  O
  O66      1.0000 0.95760  0.34010  0.72650  Biso   1.000  O
  C83      1.0000 0.06100  0.37310  0.58380  Biso   1.000  C
  C84      1.0000 0.88640  0.42040  0.57900  Biso   1.000  C
  C85      1.0000 0.00220  0.29050  0.74350  Biso   1.000  C
  O67      1.0000 0.08790  0.53630  0.54700  Biso   1.000  O
  O68      1.0000 0.04120  0.41370  0.54600  Biso   1.000  O
  C86      1.0000 0.10780  0.32200  0.56270  Biso   1.000  C
  C87      1.0000 0.82280  0.39540  0.55900  Biso   1.000  C
  H98      1.0000 0.03350  0.28400  0.71050  Biso   1.000  H
  H99      1.0000 0.02680  0.30540  0.77890  Biso   1.000  H
  C88      1.0000 0.97200  0.22830  0.75800  Biso   1.000  C
  C89      1.0000 0.13290  0.32500  0.50560  Biso   1.000  C
  C90      1.0000 0.12680  0.27250  0.60020  Biso   1.000  C
  C91      1.0000 0.79530  0.34290  0.58890  Biso   1.000  C
  C92      1.0000 0.78970  0.42290  0.51000  Biso   1.000  C
  H100     1.0000 0.95380  0.21150  0.72020  Biso   1.000  H
  H101     1.0000 0.93940  0.22630  0.78920  Biso   1.000  H
  H102     1.0000 0.00980  0.20190  0.76900  Biso   1.000  H
  H103     1.0000 0.11930  0.35960  0.48040  Biso   1.000  H
  C93      1.0000 0.16930  0.22590  0.57740  Biso   1.000  C
  H104     1.0000 0.11150  0.27020  0.64020  Biso   1.000  H
  H105     1.0000 0.81680  0.32610  0.62320  Biso   1.000  H
  C94      1.0000 0.73200  0.39330  0.49290  Biso   1.000  C
  H106     1.0000 0.80600  0.46000  0.48970  Biso   1.000  H
  C95      1.0000 0.19370  0.23380  0.51970  Biso   1.000  C
  H107     1.0000 0.18150  0.18940  0.60080  Biso   1.000  H
  C96      1.0000 0.70840  0.34270  0.52420  Biso   1.000  C
  H108     1.0000 0.70920  0.40890  0.45890  Biso   1.000  H
  H109     1.0000 0.22470  0.20320  0.50570  Biso   1.000  H
  H110     1.0000 0.66760  0.32520  0.51270  Biso   1.000  H
  N24      1.0000 0.87930  0.49100  0.37190  Biso   1.000  N
  O69      1.0000 0.91360  0.44720  0.35650  Biso   1.000  O
  O70      1.0000 0.89450  0.53000  0.41270  Biso   1.000  O
  O71      1.0000 0.82440  0.49870  0.34260  Biso   1.000  O
  C97      1.0000 0.99800  0.77100  0.73300  Biso   1.000  C
  H111     1.0000 0.98960  0.76950  0.77670  Biso   1.000  H
  H112     1.0000 0.96340  0.74680  0.71260  Biso   1.000  H
  H113     1.0000 0.99830  0.81570  0.71970  Biso   1.000  H
  C98      1.0000 0.04200  0.72560  0.70600  Biso   1.000  C
  H114     1.0000 0.08680  0.74300  0.71200  Biso   1.000  H
  H115     1.0000 0.03390  0.72520  0.66280  Biso   1.000  H
  O72      1.0000 0.90450  0.73730  0.91650  Biso   1.000  O
  C99      1.0000 0.94730  0.52060  0.42630  Biso   1.000  C
  H116     1.0000 0.95820  0.56300  0.40800  Biso   1.000  H
  H117     1.0000 0.90830  0.52540  0.45180  Biso   1.000  H
  C100     1.0000 0.93190  0.47490  0.37980  Biso   1.000  C
  H118     1.0000 0.92050  0.43280  0.39730  Biso   1.000  H
  H119     1.0000 0.96990  0.46990  0.35400  Biso   1.000  H
  H120     1.0000 0.89520  0.49110  0.35610  Biso   1.000  H
  Cd5      1.0000 0.78114  0.70871  0.38563  Biso   1.000  Cd
  O73      1.0000 0.80340  0.82410  0.38150  Biso   1.000  O
  N25      1.0000 0.88660  0.69860  0.35030  Biso   1.000  N
  O74      1.0000 0.73030  0.74600  0.29440  Biso   1.000  O
  O75      1.0000 0.75300  0.64840  0.28730  Biso   1.000  O
  O76      1.0000 0.71000  0.60030  0.40520  Biso   1.000  O
  O77      1.0000 0.80210  0.58770  0.39900  Biso   1.000  O
  N26      1.0000 0.68470  0.73990  0.42870  Biso   1.000  N
  N27      1.0000 0.82370  0.71870  0.48340  Biso   1.000  N
  C101     1.0000 0.82100  0.85660  0.32850  Biso   1.000  C
  C102     1.0000 0.90210  0.65080  0.31380  Biso   1.000  C
  C103     1.0000 0.93310  0.74160  0.36760  Biso   1.000  C
  N28      1.0000 0.72550  0.69360  0.26460  Biso   1.000  N
  N29      1.0000 0.75380  0.56040  0.40000  Biso   1.000  N
  H121     1.0000 0.83550  0.89980  0.34090  Biso   1.000  H
  H122     1.0000 0.85500  0.83580  0.30450  Biso   1.000  H
  H123     1.0000 0.78140  0.86050  0.30450  Biso   1.000  H
  H124     1.0000 0.86960  0.62070  0.30200  Biso   1.000  H
  C104     1.0000 0.96540  0.64340  0.29230  Biso   1.000  C
  C105     1.0000 0.99490  0.73790  0.34820  Biso   1.000  C
  H125     1.0000 0.92160  0.77550  0.39430  Biso   1.000  H
  O78      1.0000 0.69800  0.68760  0.21690  Biso   1.000  O
  O79      1.0000 0.74690  0.50790  0.39910  Biso   1.000  O
  C106     1.0000 0.97970  0.58810  0.25200  Biso   1.000  C
  C107     1.0000 0.01200  0.68710  0.30870  Biso   1.000  C
  H126     1.0000 0.02630  0.76880  0.36090  Biso   1.000  H
  O80      1.0000 0.03680  0.58740  0.22970  Biso   1.000  O
  O81      1.0000 0.93680  0.54810  0.24270  Biso   1.000  O
  H127     1.0000 0.05510  0.68350  0.29390  Biso   1.000  H
  Cr5      1.0000 0.07764  0.51945  0.18080  Biso   1.000  Cr
  O82      1.0000 0.12960  0.45450  0.13830  Biso   1.000  O
  O83      1.0000 0.10420  0.58960  0.12580  Biso   1.000  O
  O84      1.0000 0.15990  0.54240  0.22650  Biso   1.000  O
  C108     1.0000 0.12690  0.43900  0.08380  Biso   1.000  C
  C109     1.0000 0.07960  0.61360  0.07900  Biso   1.000  C
  C110     1.0000 0.20950  0.49780  0.24350  Biso   1.000  C
  O85      1.0000 0.96370  0.41210  0.04700  Biso   1.000  O
  O86      1.0000 0.08630  0.45880  0.04600  Biso   1.000  O
  C111     1.0000 0.17800  0.39220  0.06270  Biso   1.000  C
  C112     1.0000 0.10460  0.67720  0.05900  Biso   1.000  C
  H128     1.0000 0.21600  0.46650  0.21050  Biso   1.000  H
  H129     1.0000 0.19460  0.47320  0.27890  Biso   1.000  H
  C113     1.0000 0.27170  0.52800  0.25800  Biso   1.000  C
  C114     1.0000 0.17500  0.36710  0.00560  Biso   1.000  C
  C115     1.0000 0.22750  0.37320  0.10020  Biso   1.000  C
  C116     1.0000 0.15710  0.70470  0.08890  Biso   1.000  C
  C117     1.0000 0.07710  0.71030  0.01000  Biso   1.000  C
  H130     1.0000 0.28850  0.54620  0.22020  Biso   1.000  H
  H131     1.0000 0.27370  0.56060  0.28920  Biso   1.000  H
  H132     1.0000 0.29810  0.49020  0.26900  Biso   1.000  H
  H133     1.0000 0.14040  0.38070  0.98040  Biso   1.000  H
  C118     1.0000 0.27410  0.33070  0.07740  Biso   1.000  C
  H134     1.0000 0.22980  0.38850  0.14020  Biso   1.000  H
  H135     1.0000 0.17390  0.68320  0.12320  Biso   1.000  H
  C119     1.0000 0.10670  0.76800  0.99290  Biso   1.000  C
  H136     1.0000 0.04000  0.69400  0.98970  Biso   1.000  H
  C120     1.0000 0.26620  0.30630  0.01970  Biso   1.000  C
  H137     1.0000 0.31060  0.31850  0.10080  Biso   1.000  H
  C121     1.0000 0.15730  0.79160  0.02420  Biso   1.000  C
  H138     1.0000 0.09110  0.79080  0.95890  Biso   1.000  H
  H139     1.0000 0.29680  0.27530  0.00570  Biso   1.000  H
  H140     1.0000 0.17480  0.83240  0.01270  Biso   1.000  H
  N30      1.0000 0.00900  0.62070  0.87190  Biso   1.000  N
  O87      1.0000 0.05280  0.58640  0.85650  Biso   1.000  O
  O88      1.0000 0.97000  0.60550  0.91270  Biso   1.000  O
  O89      1.0000 0.00130  0.67560  0.84260  Biso   1.000  O
  C122     1.0000 0.72900  0.50200  0.23300  Biso   1.000  C
  H141     1.0000 0.73050  0.51040  0.27670  Biso   1.000  H
  H142     1.0000 0.75320  0.53660  0.21260  Biso   1.000  H
  H143     1.0000 0.68430  0.50170  0.21970  Biso   1.000  H
  C123     1.0000 0.77440  0.45800  0.20600  Biso   1.000  C
  H144     1.0000 0.75700  0.41320  0.21200  Biso   1.000  H
  H145     1.0000 0.77480  0.46610  0.16280  Biso   1.000  H
  O90      1.0000 0.76270  0.59550  0.41650  Biso   1.000  O
  C124     1.0000 0.97940  0.55270  0.92630  Biso   1.000  C
  H146     1.0000 0.93700  0.54180  0.90800  Biso   1.000  H
  H147     1.0000 0.97460  0.59170  0.95180  Biso   1.000  H
  C125     1.0000 0.02510  0.56810  0.87980  Biso   1.000  C
  H148     1.0000 0.06720  0.57950  0.89730  Biso   1.000  H
  H149     1.0000 0.03010  0.53010  0.85400  Biso   1.000  H
  H150     1.0000 0.00890  0.60480  0.85610  Biso   1.000  H
  Cd6      1.0000 0.21886  0.29129  0.38563  Biso   1.000  Cd
  O91      1.0000 0.19660  0.17590  0.38150  Biso   1.000  O
  N31      1.0000 0.11340  0.30140  0.35030  Biso   1.000  N
  O92      1.0000 0.26970  0.25400  0.29440  Biso   1.000  O
  O93      1.0000 0.24700  0.35160  0.28730  Biso   1.000  O
  O94      1.0000 0.29000  0.39970  0.40520  Biso   1.000  O
  O95      1.0000 0.19790  0.41230  0.39900  Biso   1.000  O
  N32      1.0000 0.31530  0.26010  0.42870  Biso   1.000  N
  N33      1.0000 0.17630  0.28130  0.48340  Biso   1.000  N
  C126     1.0000 0.17900  0.14340  0.32850  Biso   1.000  C
  C127     1.0000 0.09790  0.34920  0.31380  Biso   1.000  C
  C128     1.0000 0.06690  0.25840  0.36760  Biso   1.000  C
  N34      1.0000 0.27450  0.30640  0.26460  Biso   1.000  N
  N35      1.0000 0.24620  0.43960  0.40000  Biso   1.000  N
  H151     1.0000 0.16450  0.10020  0.34090  Biso   1.000  H
  H152     1.0000 0.14500  0.16420  0.30450  Biso   1.000  H
  H153     1.0000 0.21860  0.13950  0.30450  Biso   1.000  H
  H154     1.0000 0.13040  0.37930  0.30200  Biso   1.000  H
  C129     1.0000 0.03460  0.35660  0.29230  Biso   1.000  C
  C130     1.0000 0.00510  0.26210  0.34820  Biso   1.000  C
  H155     1.0000 0.07840  0.22450  0.39430  Biso   1.000  H
  O96      1.0000 0.30200  0.31240  0.21690  Biso   1.000  O
  O97      1.0000 0.25310  0.49210  0.39910  Biso   1.000  O
  C131     1.0000 0.02030  0.41190  0.25200  Biso   1.000  C
  C132     1.0000 0.98800  0.31290  0.30870  Biso   1.000  C
  H156     1.0000 0.97370  0.23120  0.36090  Biso   1.000  H
  O98      1.0000 0.96320  0.41260  0.22970  Biso   1.000  O
  O99      1.0000 0.06320  0.45190  0.24270  Biso   1.000  O
  H157     1.0000 0.94490  0.31650  0.29390  Biso   1.000  H
  Cr6      1.0000 0.92236  0.48055  0.18080  Biso   1.000  Cr
  O100     1.0000 0.87040  0.54550  0.13830  Biso   1.000  O
  O101     1.0000 0.89580  0.41040  0.12580  Biso   1.000  O
  O102     1.0000 0.84010  0.45760  0.22650  Biso   1.000  O
  C133     1.0000 0.87310  0.56100  0.08380  Biso   1.000  C
  C134     1.0000 0.92040  0.38640  0.07900  Biso   1.000  C
  C135     1.0000 0.79050  0.50220  0.24350  Biso   1.000  C
  O103     1.0000 0.03630  0.58790  0.04700  Biso   1.000  O
  O104     1.0000 0.91370  0.54120  0.04600  Biso   1.000  O
  C136     1.0000 0.82200  0.60780  0.06270  Biso   1.000  C
  C137     1.0000 0.89540  0.32280  0.05900  Biso   1.000  C
  H158     1.0000 0.78400  0.53350  0.21050  Biso   1.000  H
  H159     1.0000 0.80540  0.52680  0.27890  Biso   1.000  H
  C138     1.0000 0.72830  0.47200  0.25800  Biso   1.000  C
  C139     1.0000 0.82500  0.63290  0.00560  Biso   1.000  C
  C140     1.0000 0.77250  0.62680  0.10020  Biso   1.000  C
  C141     1.0000 0.84290  0.29530  0.08890  Biso   1.000  C
  C142     1.0000 0.92290  0.28970  0.01000  Biso   1.000  C
  H160     1.0000 0.71150  0.45380  0.22020  Biso   1.000  H
  H161     1.0000 0.72630  0.43940  0.28920  Biso   1.000  H
  H162     1.0000 0.70190  0.50980  0.26900  Biso   1.000  H
  H163     1.0000 0.85960  0.61930  0.98040  Biso   1.000  H
  C143     1.0000 0.72590  0.66930  0.07740  Biso   1.000  C
  H164     1.0000 0.77020  0.61150  0.14020  Biso   1.000  H
  H165     1.0000 0.82610  0.31680  0.12320  Biso   1.000  H
  C144     1.0000 0.89330  0.23200  0.99290  Biso   1.000  C
  H166     1.0000 0.96000  0.30600  0.98970  Biso   1.000  H
  C145     1.0000 0.73380  0.69370  0.01970  Biso   1.000  C
  H167     1.0000 0.68940  0.68150  0.10080  Biso   1.000  H
  C146     1.0000 0.84270  0.20840  0.02420  Biso   1.000  C
  H168     1.0000 0.90890  0.20920  0.95890  Biso   1.000  H
  H169     1.0000 0.70320  0.72470  0.00570  Biso   1.000  H
  H170     1.0000 0.82520  0.16760  0.01270  Biso   1.000  H
  N36      1.0000 0.99100  0.37930  0.87190  Biso   1.000  N
  O105     1.0000 0.94720  0.41360  0.85650  Biso   1.000  O
  O106     1.0000 0.03000  0.39450  0.91270  Biso   1.000  O
  O107     1.0000 0.99870  0.32440  0.84260  Biso   1.000  O
  C147     1.0000 0.27100  0.49800  0.23300  Biso   1.000  C
  H171     1.0000 0.26950  0.48960  0.27670  Biso   1.000  H
  H172     1.0000 0.24680  0.46340  0.21260  Biso   1.000  H
  H173     1.0000 0.31570  0.49830  0.21970  Biso   1.000  H
  C148     1.0000 0.22560  0.54200  0.20600  Biso   1.000  C
  H174     1.0000 0.24300  0.58680  0.21200  Biso   1.000  H
  H175     1.0000 0.22520  0.53390  0.16280  Biso   1.000  H
  O108     1.0000 0.23730  0.40450  0.41650  Biso   1.000  O
  C149     1.0000 0.02060  0.44730  0.92630  Biso   1.000  C
  H176     1.0000 0.06300  0.45820  0.90800  Biso   1.000  H
  H177     1.0000 0.02540  0.40830  0.95180  Biso   1.000  H
  C150     1.0000 0.97490  0.43190  0.87980  Biso   1.000  C
  H178     1.0000 0.93280  0.42050  0.89730  Biso   1.000  H
  H179     1.0000 0.96990  0.46990  0.85400  Biso   1.000  H
  H180     1.0000 0.99110  0.39520  0.85610  Biso   1.000  H
  Cd7      1.0000 0.29129  0.78114  0.61437  Biso   1.000  Cd
  O109     1.0000 0.17590  0.80340  0.61850  Biso   1.000  O
  N37      1.0000 0.30140  0.88660  0.64970  Biso   1.000  N
  O110     1.0000 0.25400  0.73030  0.70560  Biso   1.000  O
  O111     1.0000 0.35160  0.75300  0.71270  Biso   1.000  O
  O112     1.0000 0.39970  0.71000  0.59480  Biso   1.000  O
  O113     1.0000 0.41230  0.80210  0.60100  Biso   1.000  O
  N38      1.0000 0.26010  0.68470  0.57130  Biso   1.000  N
  N39      1.0000 0.28130  0.82370  0.51660  Biso   1.000  N
  C151     1.0000 0.14340  0.82100  0.67150  Biso   1.000  C
  C152     1.0000 0.34920  0.90210  0.68620  Biso   1.000  C
  C153     1.0000 0.25840  0.93310  0.63240  Biso   1.000  C
  N40      1.0000 0.30640  0.72550  0.73540  Biso   1.000  N
  N41      1.0000 0.43960  0.75380  0.60000  Biso   1.000  N
  H181     1.0000 0.10020  0.83550  0.65910  Biso   1.000  H
  H182     1.0000 0.16420  0.85500  0.69550  Biso   1.000  H
  H183     1.0000 0.13950  0.78140  0.69550  Biso   1.000  H
  H184     1.0000 0.37930  0.86960  0.69800  Biso   1.000  H
  C154     1.0000 0.35660  0.96540  0.70770  Biso   1.000  C
  C155     1.0000 0.26210  0.99490  0.65180  Biso   1.000  C
  H185     1.0000 0.22450  0.92160  0.60570  Biso   1.000  H
  O114     1.0000 0.31240  0.69800  0.78310  Biso   1.000  O
  O115     1.0000 0.49210  0.74690  0.60090  Biso   1.000  O
  C156     1.0000 0.41190  0.97970  0.74800  Biso   1.000  C
  C157     1.0000 0.31290  0.01200  0.69130  Biso   1.000  C
  H186     1.0000 0.23120  0.02630  0.63910  Biso   1.000  H
  O116     1.0000 0.41260  0.03680  0.77030  Biso   1.000  O
  O117     1.0000 0.45190  0.93680  0.75730  Biso   1.000  O
  H187     1.0000 0.31650  0.05510  0.70610  Biso   1.000  H
  Cr7      1.0000 0.48055  0.07764  0.81920  Biso   1.000  Cr
  O118     1.0000 0.54550  0.12960  0.86170  Biso   1.000  O
  O119     1.0000 0.41040  0.10420  0.87420  Biso   1.000  O
  O120     1.0000 0.45760  0.15990  0.77350  Biso   1.000  O
  C158     1.0000 0.56100  0.12690  0.91620  Biso   1.000  C
  C159     1.0000 0.38640  0.07960  0.92100  Biso   1.000  C
  C160     1.0000 0.50220  0.20950  0.75650  Biso   1.000  C
  O121     1.0000 0.58790  0.96370  0.95300  Biso   1.000  O
  O122     1.0000 0.54120  0.08630  0.95400  Biso   1.000  O
  C161     1.0000 0.60780  0.17800  0.93730  Biso   1.000  C
  C162     1.0000 0.32280  0.10460  0.94100  Biso   1.000  C
  H188     1.0000 0.53350  0.21600  0.78950  Biso   1.000  H
  H189     1.0000 0.52680  0.19460  0.72110  Biso   1.000  H
  C163     1.0000 0.47200  0.27170  0.74200  Biso   1.000  C
  C164     1.0000 0.63290  0.17500  0.99440  Biso   1.000  C
  C165     1.0000 0.62680  0.22750  0.89980  Biso   1.000  C
  C166     1.0000 0.29530  0.15710  0.91110  Biso   1.000  C
  C167     1.0000 0.28970  0.07710  0.99000  Biso   1.000  C
  H190     1.0000 0.45380  0.28850  0.77980  Biso   1.000  H
  H191     1.0000 0.43940  0.27370  0.71080  Biso   1.000  H
  H192     1.0000 0.50980  0.29810  0.73100  Biso   1.000  H
  H193     1.0000 0.61930  0.14040  0.01960  Biso   1.000  H
  C168     1.0000 0.66930  0.27410  0.92260  Biso   1.000  C
  H194     1.0000 0.61150  0.22980  0.85980  Biso   1.000  H
  H195     1.0000 0.31680  0.17390  0.87680  Biso   1.000  H
  C169     1.0000 0.23200  0.10670  0.00710  Biso   1.000  C
  H196     1.0000 0.30600  0.04000  0.01030  Biso   1.000  H
  C170     1.0000 0.69370  0.26620  0.98030  Biso   1.000  C
  H197     1.0000 0.68150  0.31060  0.89920  Biso   1.000  H
  C171     1.0000 0.20840  0.15730  0.97580  Biso   1.000  C
  H198     1.0000 0.20920  0.09110  0.04110  Biso   1.000  H
  H199     1.0000 0.72470  0.29680  0.99430  Biso   1.000  H
  H200     1.0000 0.16760  0.17480  0.98730  Biso   1.000  H
  N42      1.0000 0.37930  0.00900  0.12810  Biso   1.000  N
  O123     1.0000 0.41360  0.05280  0.14350  Biso   1.000  O
  O124     1.0000 0.39450  0.97000  0.08730  Biso   1.000  O
  O125     1.0000 0.32440  0.00130  0.15740  Biso   1.000  O
  C172     1.0000 0.49800  0.72900  0.76700  Biso   1.000  C
  H201     1.0000 0.48960  0.73050  0.72330  Biso   1.000  H
  H202     1.0000 0.46340  0.75320  0.78740  Biso   1.000  H
  H203     1.0000 0.49830  0.68430  0.78030  Biso   1.000  H
  C173     1.0000 0.54200  0.77440  0.79400  Biso   1.000  C
  H204     1.0000 0.58680  0.75700  0.78800  Biso   1.000  H
  H205     1.0000 0.53390  0.77480  0.83720  Biso   1.000  H
  O126     1.0000 0.40450  0.76270  0.58350  Biso   1.000  O
  C174     1.0000 0.44730  0.97940  0.07370  Biso   1.000  C
  H206     1.0000 0.45820  0.93700  0.09200  Biso   1.000  H
  H207     1.0000 0.40830  0.97460  0.04820  Biso   1.000  H
  C175     1.0000 0.43190  0.02510  0.12020  Biso   1.000  C
  H208     1.0000 0.42050  0.06720  0.10270  Biso   1.000  H
  H209     1.0000 0.46990  0.03010  0.14600  Biso   1.000  H
  H210     1.0000 0.39520  0.00890  0.14390  Biso   1.000  H
  Cd8      1.0000 0.70871  0.21886  0.61437  Biso   1.000  Cd
  O127     1.0000 0.82410  0.19660  0.61850  Biso   1.000  O
  N43      1.0000 0.69860  0.11340  0.64970  Biso   1.000  N
  O128     1.0000 0.74600  0.26970  0.70560  Biso   1.000  O
  O129     1.0000 0.64840  0.24700  0.71270  Biso   1.000  O
  O130     1.0000 0.60030  0.29000  0.59480  Biso   1.000  O
  O131     1.0000 0.58770  0.19790  0.60100  Biso   1.000  O
  N44      1.0000 0.73990  0.31530  0.57130  Biso   1.000  N
  N45      1.0000 0.71870  0.17630  0.51660  Biso   1.000  N
  C176     1.0000 0.85660  0.17900  0.67150  Biso   1.000  C
  C177     1.0000 0.65080  0.09790  0.68620  Biso   1.000  C
  C178     1.0000 0.74160  0.06690  0.63240  Biso   1.000  C
  N46      1.0000 0.69360  0.27450  0.73540  Biso   1.000  N
  N47      1.0000 0.56040  0.24620  0.60000  Biso   1.000  N
  H211     1.0000 0.89980  0.16450  0.65910  Biso   1.000  H
  H212     1.0000 0.83580  0.14500  0.69550  Biso   1.000  H
  H213     1.0000 0.86050  0.21860  0.69550  Biso   1.000  H
  H214     1.0000 0.62070  0.13040  0.69800  Biso   1.000  H
  C179     1.0000 0.64340  0.03460  0.70770  Biso   1.000  C
  C180     1.0000 0.73790  0.00510  0.65180  Biso   1.000  C
  H215     1.0000 0.77550  0.07840  0.60570  Biso   1.000  H
  O132     1.0000 0.68760  0.30200  0.78310  Biso   1.000  O
  O133     1.0000 0.50790  0.25310  0.60090  Biso   1.000  O
  C181     1.0000 0.58810  0.02030  0.74800  Biso   1.000  C
  C182     1.0000 0.68710  0.98800  0.69130  Biso   1.000  C
  H216     1.0000 0.76880  0.97370  0.63910  Biso   1.000  H
  O134     1.0000 0.58740  0.96320  0.77030  Biso   1.000  O
  O135     1.0000 0.54810  0.06320  0.75730  Biso   1.000  O
  H217     1.0000 0.68350  0.94490  0.70610  Biso   1.000  H
  Cr8      1.0000 0.51945  0.92236  0.81920  Biso   1.000  Cr
  O136     1.0000 0.45450  0.87040  0.86170  Biso   1.000  O
  O137     1.0000 0.58960  0.89580  0.87420  Biso   1.000  O
  O138     1.0000 0.54240  0.84010  0.77350  Biso   1.000  O
  C183     1.0000 0.43900  0.87310  0.91620  Biso   1.000  C
  C184     1.0000 0.61360  0.92040  0.92100  Biso   1.000  C
  C185     1.0000 0.49780  0.79050  0.75650  Biso   1.000  C
  O139     1.0000 0.41210  0.03630  0.95300  Biso   1.000  O
  O140     1.0000 0.45880  0.91370  0.95400  Biso   1.000  O
  C186     1.0000 0.39220  0.82200  0.93730  Biso   1.000  C
  C187     1.0000 0.67720  0.89540  0.94100  Biso   1.000  C
  H218     1.0000 0.46650  0.78400  0.78950  Biso   1.000  H
  H219     1.0000 0.47320  0.80540  0.72110  Biso   1.000  H
  C188     1.0000 0.52800  0.72830  0.74200  Biso   1.000  C
  C189     1.0000 0.36710  0.82500  0.99440  Biso   1.000  C
  C190     1.0000 0.37320  0.77250  0.89980  Biso   1.000  C
  C191     1.0000 0.70470  0.84290  0.91110  Biso   1.000  C
  C192     1.0000 0.71030  0.92290  0.99000  Biso   1.000  C
  H220     1.0000 0.54620  0.71150  0.77980  Biso   1.000  H
  H221     1.0000 0.56060  0.72630  0.71080  Biso   1.000  H
  H222     1.0000 0.49020  0.70190  0.73100  Biso   1.000  H
  H223     1.0000 0.38070  0.85960  0.01960  Biso   1.000  H
  C193     1.0000 0.33070  0.72590  0.92260  Biso   1.000  C
  H224     1.0000 0.38850  0.77020  0.85980  Biso   1.000  H
  H225     1.0000 0.68320  0.82610  0.87680  Biso   1.000  H
  C194     1.0000 0.76800  0.89330  0.00710  Biso   1.000  C
  H226     1.0000 0.69400  0.96000  0.01030  Biso   1.000  H
  C195     1.0000 0.30630  0.73380  0.98030  Biso   1.000  C
  H227     1.0000 0.31850  0.68940  0.89920  Biso   1.000  H
  C196     1.0000 0.79160  0.84270  0.97580  Biso   1.000  C
  H228     1.0000 0.79080  0.90890  0.04110  Biso   1.000  H
  H229     1.0000 0.27530  0.70320  0.99430  Biso   1.000  H
  H230     1.0000 0.83240  0.82520  0.98730  Biso   1.000  H
  N48      1.0000 0.62070  0.99100  0.12810  Biso   1.000  N
  O141     1.0000 0.58640  0.94720  0.14350  Biso   1.000  O
  O142     1.0000 0.60550  0.03000  0.08730  Biso   1.000  O
  O143     1.0000 0.67560  0.99870  0.15740  Biso   1.000  O
  C197     1.0000 0.50200  0.27100  0.76700  Biso   1.000  C
  H231     1.0000 0.51040  0.26950  0.72330  Biso   1.000  H
  H232     1.0000 0.53660  0.24680  0.78740  Biso   1.000  H
  H233     1.0000 0.50170  0.31570  0.78030  Biso   1.000  H
  C198     1.0000 0.45800  0.22560  0.79400  Biso   1.000  C
  H234     1.0000 0.41320  0.24300  0.78800  Biso   1.000  H
  H235     1.0000 0.46610  0.22520  0.83720  Biso   1.000  H
  O144     1.0000 0.59550  0.23730  0.58350  Biso   1.000  O
  C199     1.0000 0.55270  0.02060  0.07370  Biso   1.000  C
  H236     1.0000 0.54180  0.06300  0.09200  Biso   1.000  H
  H237     1.0000 0.59170  0.02540  0.04820  Biso   1.000  H
  C200     1.0000 0.56810  0.97490  0.12020  Biso   1.000  C
  H238     1.0000 0.57950  0.93280  0.10270  Biso   1.000  H
  H239     1.0000 0.53010  0.96990  0.14600  Biso   1.000  H
  H240     1.0000 0.60480  0.99110  0.14390  Biso   1.000  H
  O145     1.0000 0.50000  0.00000  0.36150  Biso   1.000  O
  Cr9      1.0000 0.50000  0.00000  0.44649  Biso   1.000  Cr
  O146     1.0000 0.50000  0.00000  0.53640  Biso   1.000  O
  O147     1.0000 0.00000  0.50000  0.63850  Biso   1.000  O
  Cr10     1.0000 0.00000  0.50000  0.55351  Biso   1.000  Cr
  O148     1.0000 0.00000  0.50000  0.46360  Biso   1.000  O
  O149     1.0000 0.00000  0.50000  0.13850  Biso   1.000  O
  Cr11     1.0000 0.00000  0.50000  0.05351  Biso   1.000  Cr
  O150     1.0000 0.00000  0.50000  0.96360  Biso   1.000  O
  O151     1.0000 0.50000  0.00000  0.86150  Biso   1.000  O
  Cr12     1.0000 0.50000  0.00000  0.94649  Biso   1.000  Cr
  O152     1.0000 0.50000  0.00000  0.03640  Biso   1.000  O
