data_image0
_cell_length_a       26.8674
_cell_length_b       26.8674
_cell_length_c       95.505
_cell_angle_alpha    90
_cell_angle_beta     90
_cell_angle_gamma    120

_symmetry_space_group_name_H-M    "P 1"
_symmetry_int_tables_number       1

loop_
  _symmetry_equiv_pos_as_xyz
  'x, y, z'

loop_
  _atom_site_label
  _atom_site_occupancy
  _atom_site_fract_x
  _atom_site_fract_y
  _atom_site_fract_z
  _atom_site_thermal_displace_type
  _atom_site_B_iso_or_equiv
  _atom_site_type_symbol
  N1       1.0000 0.57410  0.60440  0.49930  Biso   1.000  N
  C1       1.0000 0.52680  0.61770  0.49800  Biso   1.000  C
  H1       1.0000 0.50860  0.61460  0.48950  Biso   1.000  H
  C2       1.0000 0.58560  0.57470  0.48770  Biso   1.000  C
  H2       1.0000 0.55840  0.56650  0.48030  Biso   1.000  H
  H3       1.0000 0.58200  0.53940  0.49110  Biso   1.000  H
  H4       1.0000 0.62390  0.59900  0.48420  Biso   1.000  H
  C3       1.0000 0.61340  0.62610  0.51150  Biso   1.000  C
  H5       1.0000 0.59140  0.62000  0.51990  Biso   1.000  H
  H6       1.0000 0.63980  0.66650  0.51040  Biso   1.000  H
  H7       1.0000 0.63450  0.60600  0.51210  Biso   1.000  H
  C4       1.0000 0.19700  0.47670  0.52724  Biso   1.000  C
  C5       1.0000 0.15100  0.44710  0.53817  Biso   1.000  C
  C6       1.0000 0.12240  0.38650  0.53835  Biso   1.000  C
  H8       1.0000 0.13210  0.36640  0.53200  Biso   1.000  H
  C7       1.0000 0.07890  0.35750  0.54823  Biso   1.000  C
  H9       1.0000 0.05940  0.31750  0.54860  Biso   1.000  H
  C8       1.0000 0.06500  0.38810  0.55752  Biso   1.000  C
  C9       1.0000 0.09380  0.44700  0.55719  Biso   1.000  C
  H10      1.0000 0.08540  0.46790  0.56360  Biso   1.000  H
  C10      1.0000 0.13590  0.47450  0.54699  Biso   1.000  C
  H11      1.0000 0.15420  0.51440  0.54640  Biso   1.000  H
  C11      1.0000 0.00340  0.38050  0.57648  Biso   1.000  C
  H12      1.0000 0.99610  0.40850  0.57190  Biso   1.000  H
  H13      1.0000 0.03320  0.40010  0.58350  Biso   1.000  H
  C12      1.0000 0.83040  0.35790  0.51079  Biso   1.000  C
  C13      1.0000 0.84850  0.35580  0.52540  Biso   1.000  C
  C14      1.0000 0.86260  0.40030  0.53465  Biso   1.000  C
  H14      1.0000 0.86410  0.43400  0.53170  Biso   1.000  H
  C15      1.0000 0.87450  0.39360  0.54858  Biso   1.000  C
  H15      1.0000 0.87910  0.42140  0.55510  Biso   1.000  H
  C16      1.0000 0.87940  0.35010  0.55283  Biso   1.000  C
  C17      1.0000 0.86300  0.30240  0.54411  Biso   1.000  C
  H16      1.0000 0.86300  0.26960  0.54720  Biso   1.000  H
  C18      1.0000 0.84680  0.30700  0.53054  Biso   1.000  C
  H17      1.0000 0.83420  0.27540  0.52460  Biso   1.000  H
  C19      1.0000 0.90300  0.30620  0.57191  Biso   1.000  C
  H18      1.0000 0.91640  0.29100  0.56450  Biso   1.000  H
  H19      1.0000 0.86770  0.27490  0.57570  Biso   1.000  H
  C20      1.0000 0.25640  0.56450  0.48686  Biso   1.000  C
  C21      1.0000 0.23180  0.53500  0.47324  Biso   1.000  C
  C22      1.0000 0.18680  0.48350  0.47353  Biso   1.000  C
  H20      1.0000 0.17130  0.46660  0.48210  Biso   1.000  H
  C23      1.0000 0.16160  0.45390  0.46146  Biso   1.000  C
  H21      1.0000 0.13100  0.41640  0.46180  Biso   1.000  H
  C24      1.0000 0.18350  0.48190  0.44865  Biso   1.000  C
  C25      1.0000 0.22840  0.53250  0.44930  Biso   1.000  C
  H22      1.0000 0.24510  0.55040  0.44090  Biso   1.000  H
  C26      1.0000 0.25370  0.56200  0.46149  Biso   1.000  C
  H23      1.0000 0.28480  0.59930  0.46130  Biso   1.000  H
  O1       1.0000 0.13500  0.43240  0.44104  Biso   1.000  O
  O2       1.0000 0.05100  0.45680  0.43467  Biso   1.000  O
  C27      1.0000 0.14670  0.43020  0.42590  Biso   1.000  C
  H24      1.0000 0.17520  0.42610  0.42050  Biso   1.000  H
  H25      1.0000 0.16020  0.47060  0.42750  Biso   1.000  H
  C28      1.0000 0.04940  0.42470  0.42162  Biso   1.000  C
  H26      1.0000 0.06070  0.46240  0.41780  Biso   1.000  H
  H27      1.0000 0.01680  0.39520  0.41650  Biso   1.000  H
  C29      1.0000 0.99080  0.42720  0.44129  Biso   1.000  C
  C30      1.0000 0.95430  0.36410  0.44189  Biso   1.000  C
  H28      1.0000 0.95970  0.33830  0.43650  Biso   1.000  H
  C31      1.0000 0.90730  0.34790  0.45241  Biso   1.000  C
  H29      1.0000 0.88270  0.30950  0.45460  Biso   1.000  H
  C32      1.0000 0.90130  0.38880  0.45855  Biso   1.000  C
  C33      1.0000 0.94120  0.44650  0.45460  Biso   1.000  C
  H30      1.0000 0.93370  0.47490  0.45770  Biso   1.000  H
  C34      1.0000 0.98950  0.46400  0.44670  Biso   1.000  C
  H31      1.0000 0.01820  0.50220  0.44580  Biso   1.000  H
  C35      1.0000 0.85800  0.37850  0.46931  Biso   1.000  C
  Co1      1.0000 0.28895  0.52828  0.51339  Biso   1.000  Co
  Co2      1.0000 0.42957  0.62043  0.51097  Biso   1.000  Co
  O3       1.0000 0.02093  0.35386  0.56659  Biso   1.000  O
  O4       1.0000 0.21232  0.44909  0.51968  Biso   1.000  O
  O5       1.0000 0.22229  0.53138  0.52658  Biso   1.000  O
  O6       1.0000 0.23925  0.54590  0.49800  Biso   1.000  O
  O7       1.0000 0.30000  0.61310  0.48581  Biso   1.000  O
  O8       1.0000 0.35015  0.61258  0.51438  Biso   1.000  O
  O9       1.0000 0.51310  0.63250  0.50847  Biso   1.000  O
  O10      1.0000 0.89330  0.35030  0.56658  Biso   1.000  O
  O11      1.0000 0.81473  0.31481  0.50326  Biso   1.000  O
  O12      1.0000 0.82067  0.32520  0.47131  Biso   1.000  O
  O13      1.0000 0.83430  0.40528  0.50694  Biso   1.000  O
  O14      1.0000 0.85953  0.42056  0.47490  Biso   1.000  O
  N2       1.0000 0.56980  0.58720  0.50600  Biso   1.000  N
  C36      1.0000 0.52430  0.60050  0.50250  Biso   1.000  C
  H32      1.0000 0.50180  0.58170  0.49470  Biso   1.000  H
  C37      1.0000 0.57610  0.54410  0.49749  Biso   1.000  C
  H33      1.0000 0.56210  0.54290  0.48820  Biso   1.000  H
  H34      1.0000 0.55450  0.50690  0.50170  Biso   1.000  H
  H35      1.0000 0.61600  0.55480  0.49710  Biso   1.000  H
  C38      1.0000 0.59800  0.60310  0.52008  Biso   1.000  C
  H36      1.0000 0.58290  0.62320  0.52530  Biso   1.000  H
  H37      1.0000 0.63870  0.62750  0.51890  Biso   1.000  H
  H38      1.0000 0.59040  0.56890  0.52500  Biso   1.000  H
  O15      1.0000 0.16310  0.44580  0.43544  Biso   1.000  O
  O16      1.0000 0.03440  0.44820  0.42937  Biso   1.000  O
  C39      1.0000 0.15470  0.48180  0.42553  Biso   1.000  C
  H39      1.0000 0.18810  0.51340  0.42120  Biso   1.000  H
  H40      1.0000 0.13690  0.49730  0.43160  Biso   1.000  H
  C40      1.0000 0.05120  0.40490  0.42587  Biso   1.000  C
  H41      1.0000 0.02700  0.37000  0.42070  Biso   1.000  H
  H42      1.0000 0.05720  0.39360  0.43510  Biso   1.000  H
  N3       1.0000 0.24077  0.93773  0.83263  Biso   1.000  N
  C41      1.0000 0.19347  0.95103  0.83133  Biso   1.000  C
  H43      1.0000 0.17527  0.94793  0.82283  Biso   1.000  H
  C42      1.0000 0.25227  0.90803  0.82103  Biso   1.000  C
  H44      1.0000 0.22507  0.89983  0.81363  Biso   1.000  H
  H45      1.0000 0.24867  0.87273  0.82443  Biso   1.000  H
  H46      1.0000 0.29057  0.93233  0.81753  Biso   1.000  H
  C43      1.0000 0.28007  0.95943  0.84483  Biso   1.000  C
  H47      1.0000 0.25807  0.95333  0.85323  Biso   1.000  H
  H48      1.0000 0.30647  0.99983  0.84373  Biso   1.000  H
  H49      1.0000 0.30117  0.93933  0.84543  Biso   1.000  H
  C44      1.0000 0.86367  0.81003  0.86057  Biso   1.000  C
  C45      1.0000 0.81767  0.78043  0.87150  Biso   1.000  C
  C46      1.0000 0.78907  0.71983  0.87168  Biso   1.000  C
  H50      1.0000 0.79877  0.69973  0.86533  Biso   1.000  H
  C47      1.0000 0.74557  0.69083  0.88156  Biso   1.000  C
  H51      1.0000 0.72607  0.65083  0.88193  Biso   1.000  H
  C48      1.0000 0.73167  0.72143  0.89085  Biso   1.000  C
  C49      1.0000 0.76047  0.78033  0.89052  Biso   1.000  C
  H52      1.0000 0.75207  0.80123  0.89693  Biso   1.000  H
  C50      1.0000 0.80257  0.80783  0.88032  Biso   1.000  C
  H53      1.0000 0.82087  0.84773  0.87973  Biso   1.000  H
  C51      1.0000 0.67007  0.71383  0.90981  Biso   1.000  C
  H54      1.0000 0.66277  0.74183  0.90523  Biso   1.000  H
  H55      1.0000 0.69987  0.73343  0.91683  Biso   1.000  H
  C52      1.0000 0.49707  0.69123  0.84412  Biso   1.000  C
  C53      1.0000 0.51517  0.68913  0.85873  Biso   1.000  C
  C54      1.0000 0.52927  0.73363  0.86798  Biso   1.000  C
  H56      1.0000 0.53077  0.76733  0.86503  Biso   1.000  H
  C55      1.0000 0.54117  0.72693  0.88191  Biso   1.000  C
  H57      1.0000 0.54577  0.75473  0.88843  Biso   1.000  H
  C56      1.0000 0.54607  0.68343  0.88616  Biso   1.000  C
  C57      1.0000 0.52967  0.63573  0.87744  Biso   1.000  C
  H58      1.0000 0.52967  0.60293  0.88053  Biso   1.000  H
  C58      1.0000 0.51347  0.64033  0.86387  Biso   1.000  C
  H59      1.0000 0.50087  0.60873  0.85793  Biso   1.000  H
  C59      1.0000 0.56967  0.63953  0.90524  Biso   1.000  C
  H60      1.0000 0.58307  0.62433  0.89783  Biso   1.000  H
  H61      1.0000 0.53437  0.60823  0.90903  Biso   1.000  H
  C60      1.0000 0.92307  0.89783  0.82019  Biso   1.000  C
  C61      1.0000 0.89847  0.86833  0.80657  Biso   1.000  C
  C62      1.0000 0.85347  0.81683  0.80686  Biso   1.000  C
  H62      1.0000 0.83797  0.79993  0.81543  Biso   1.000  H
  C63      1.0000 0.82827  0.78723  0.79479  Biso   1.000  C
  H63      1.0000 0.79767  0.74973  0.79513  Biso   1.000  H
  C64      1.0000 0.85017  0.81523  0.78198  Biso   1.000  C
  C65      1.0000 0.89507  0.86583  0.78263  Biso   1.000  C
  H64      1.0000 0.91177  0.88373  0.77423  Biso   1.000  H
  C66      1.0000 0.92037  0.89533  0.79482  Biso   1.000  C
  H65      1.0000 0.95147  0.93263  0.79463  Biso   1.000  H
  O17      1.0000 0.80167  0.76573  0.77437  Biso   1.000  O
  O18      1.0000 0.71767  0.79013  0.76800  Biso   1.000  O
  C67      1.0000 0.81337  0.76353  0.75923  Biso   1.000  C
  H66      1.0000 0.84187  0.75943  0.75383  Biso   1.000  H
  H67      1.0000 0.82687  0.80393  0.76083  Biso   1.000  H
  C68      1.0000 0.71607  0.75803  0.75495  Biso   1.000  C
  H68      1.0000 0.72737  0.79573  0.75113  Biso   1.000  H
  H69      1.0000 0.68347  0.72853  0.74983  Biso   1.000  H
  C69      1.0000 0.65747  0.76053  0.77462  Biso   1.000  C
  C70      1.0000 0.62097  0.69743  0.77522  Biso   1.000  C
  H70      1.0000 0.62637  0.67163  0.76983  Biso   1.000  H
  C71      1.0000 0.57397  0.68123  0.78574  Biso   1.000  C
  H71      1.0000 0.54937  0.64283  0.78793  Biso   1.000  H
  C72      1.0000 0.56797  0.72213  0.79188  Biso   1.000  C
  C73      1.0000 0.60787  0.77983  0.78793  Biso   1.000  C
  H72      1.0000 0.60037  0.80823  0.79103  Biso   1.000  H
  C74      1.0000 0.65617  0.79733  0.78003  Biso   1.000  C
  H73      1.0000 0.68487  0.83553  0.77913  Biso   1.000  H
  C75      1.0000 0.52467  0.71183  0.80264  Biso   1.000  C
  Co3      1.0000 0.95562  0.86161  0.84673  Biso   1.000  Co
  Co4      1.0000 0.09624  0.95376  0.84430  Biso   1.000  Co
  O19      1.0000 0.68760  0.68719  0.89992  Biso   1.000  O
  O20      1.0000 0.87899  0.78242  0.85301  Biso   1.000  O
  O21      1.0000 0.88896  0.86471  0.85991  Biso   1.000  O
  O22      1.0000 0.90592  0.87923  0.83133  Biso   1.000  O
  O23      1.0000 0.96667  0.94643  0.81914  Biso   1.000  O
  O24      1.0000 0.01682  0.94591  0.84771  Biso   1.000  O
  O25      1.0000 0.17977  0.96583  0.84180  Biso   1.000  O
  O26      1.0000 0.55997  0.68363  0.89991  Biso   1.000  O
  O27      1.0000 0.48140  0.64814  0.83659  Biso   1.000  O
  O28      1.0000 0.48734  0.65853  0.80464  Biso   1.000  O
  O29      1.0000 0.50097  0.73861  0.84027  Biso   1.000  O
  O30      1.0000 0.52620  0.75389  0.80823  Biso   1.000  O
  N4       1.0000 0.23647  0.92053  0.83933  Biso   1.000  N
  C76      1.0000 0.19097  0.93383  0.83583  Biso   1.000  C
  H74      1.0000 0.16847  0.91503  0.82803  Biso   1.000  H
  C77      1.0000 0.24277  0.87743  0.83082  Biso   1.000  C
  H75      1.0000 0.22877  0.87623  0.82153  Biso   1.000  H
  H76      1.0000 0.22117  0.84023  0.83503  Biso   1.000  H
  H77      1.0000 0.28267  0.88813  0.83043  Biso   1.000  H
  C78      1.0000 0.26467  0.93643  0.85341  Biso   1.000  C
  H78      1.0000 0.24957  0.95653  0.85863  Biso   1.000  H
  H79      1.0000 0.30537  0.96083  0.85223  Biso   1.000  H
  H80      1.0000 0.25707  0.90223  0.85833  Biso   1.000  H
  O31      1.0000 0.82977  0.77913  0.76877  Biso   1.000  O
  O32      1.0000 0.70107  0.78153  0.76270  Biso   1.000  O
  C79      1.0000 0.82137  0.81513  0.75886  Biso   1.000  C
  H81      1.0000 0.85477  0.84673  0.75453  Biso   1.000  H
  H82      1.0000 0.80357  0.83063  0.76493  Biso   1.000  H
  C80      1.0000 0.71787  0.73823  0.75920  Biso   1.000  C
  H83      1.0000 0.69367  0.70333  0.75403  Biso   1.000  H
  H84      1.0000 0.72387  0.72693  0.76843  Biso   1.000  H
  N5       1.0000 0.90743  0.27107  0.16597  Biso   1.000  N
  C81      1.0000 0.86013  0.28437  0.16467  Biso   1.000  C
  H85      1.0000 0.84193  0.28127  0.15617  Biso   1.000  H
  C82      1.0000 0.91893  0.24137  0.15437  Biso   1.000  C
  H86      1.0000 0.89173  0.23317  0.14697  Biso   1.000  H
  H87      1.0000 0.91533  0.20607  0.15777  Biso   1.000  H
  H88      1.0000 0.95723  0.26567  0.15087  Biso   1.000  H
  C83      1.0000 0.94673  0.29277  0.17817  Biso   1.000  C
  H89      1.0000 0.92473  0.28667  0.18657  Biso   1.000  H
  H90      1.0000 0.97313  0.33317  0.17707  Biso   1.000  H
  H91      1.0000 0.96783  0.27267  0.17877  Biso   1.000  H
  C84      1.0000 0.53033  0.14337  0.19391  Biso   1.000  C
  C85      1.0000 0.48433  0.11377  0.20484  Biso   1.000  C
  C86      1.0000 0.45573  0.05317  0.20502  Biso   1.000  C
  H92      1.0000 0.46543  0.03307  0.19867  Biso   1.000  H
  C87      1.0000 0.41223  0.02417  0.21490  Biso   1.000  C
  H93      1.0000 0.39273  0.98417  0.21527  Biso   1.000  H
  C88      1.0000 0.39833  0.05477  0.22419  Biso   1.000  C
  C89      1.0000 0.42713  0.11367  0.22386  Biso   1.000  C
  H94      1.0000 0.41873  0.13457  0.23027  Biso   1.000  H
  C90      1.0000 0.46923  0.14117  0.21366  Biso   1.000  C
  H95      1.0000 0.48753  0.18107  0.21307  Biso   1.000  H
  C91      1.0000 0.33673  0.04717  0.24315  Biso   1.000  C
  H96      1.0000 0.32943  0.07517  0.23857  Biso   1.000  H
  H97      1.0000 0.36653  0.06677  0.25017  Biso   1.000  H
  C92      1.0000 0.16373  0.02457  0.17746  Biso   1.000  C
  C93      1.0000 0.18183  0.02247  0.19207  Biso   1.000  C
  C94      1.0000 0.19593  0.06697  0.20132  Biso   1.000  C
  H98      1.0000 0.19743  0.10067  0.19837  Biso   1.000  H
  C95      1.0000 0.20783  0.06027  0.21525  Biso   1.000  C
  H99      1.0000 0.21243  0.08807  0.22177  Biso   1.000  H
  C96      1.0000 0.21273  0.01677  0.21950  Biso   1.000  C
  C97      1.0000 0.19633  0.96907  0.21078  Biso   1.000  C
  H100     1.0000 0.19633  0.93627  0.21387  Biso   1.000  H
  C98      1.0000 0.18013  0.97367  0.19721  Biso   1.000  C
  H101     1.0000 0.16753  0.94207  0.19127  Biso   1.000  H
  C99      1.0000 0.23633  0.97287  0.23858  Biso   1.000  C
  H102     1.0000 0.24973  0.95767  0.23117  Biso   1.000  H
  H103     1.0000 0.20103  0.94157  0.24237  Biso   1.000  H
  C100     1.0000 0.58973  0.23117  0.15353  Biso   1.000  C
  C101     1.0000 0.56513  0.20167  0.13991  Biso   1.000  C
  C102     1.0000 0.52013  0.15017  0.14020  Biso   1.000  C
  H104     1.0000 0.50463  0.13327  0.14877  Biso   1.000  H
  C103     1.0000 0.49493  0.12057  0.12813  Biso   1.000  C
  H105     1.0000 0.46433  0.08307  0.12847  Biso   1.000  H
  C104     1.0000 0.51683  0.14857  0.11532  Biso   1.000  C
  C105     1.0000 0.56173  0.19917  0.11597  Biso   1.000  C
  H106     1.0000 0.57843  0.21707  0.10757  Biso   1.000  H
  C106     1.0000 0.58703  0.22867  0.12816  Biso   1.000  C
  H107     1.0000 0.61813  0.26597  0.12797  Biso   1.000  H
  O33      1.0000 0.46833  0.09907  0.10771  Biso   1.000  O
  O34      1.0000 0.38433  0.12347  0.10134  Biso   1.000  O
  C107     1.0000 0.48003  0.09687  0.09257  Biso   1.000  C
  H108     1.0000 0.50853  0.09277  0.08717  Biso   1.000  H
  H109     1.0000 0.49353  0.13727  0.09417  Biso   1.000  H
  C108     1.0000 0.38273  0.09137  0.08829  Biso   1.000  C
  H110     1.0000 0.39403  0.12907  0.08447  Biso   1.000  H
  H111     1.0000 0.35013  0.06187  0.08317  Biso   1.000  H
  C109     1.0000 0.32413  0.09387  0.10796  Biso   1.000  C
  C110     1.0000 0.28763  0.03077  0.10856  Biso   1.000  C
  H112     1.0000 0.29303  0.00497  0.10317  Biso   1.000  H
  C111     1.0000 0.24063  0.01457  0.11908  Biso   1.000  C
  H113     1.0000 0.21603  0.97617  0.12127  Biso   1.000  H
  C112     1.0000 0.23463  0.05547  0.12522  Biso   1.000  C
  C113     1.0000 0.27453  0.11317  0.12127  Biso   1.000  C
  H114     1.0000 0.26703  0.14157  0.12437  Biso   1.000  H
  C114     1.0000 0.32283  0.13067  0.11337  Biso   1.000  C
  H115     1.0000 0.35153  0.16887  0.11247  Biso   1.000  H
  C115     1.0000 0.19133  0.04517  0.13598  Biso   1.000  C
  Co5      1.0000 0.62228  0.19495  0.18006  Biso   1.000  Co
  Co6      1.0000 0.76290  0.28710  0.17764  Biso   1.000  Co
  O35      1.0000 0.35426  0.02053  0.23326  Biso   1.000  O
  O36      1.0000 0.54565  0.11576  0.18635  Biso   1.000  O
  O37      1.0000 0.55562  0.19805  0.19325  Biso   1.000  O
  O38      1.0000 0.57258  0.21257  0.16467  Biso   1.000  O
  O39      1.0000 0.63333  0.27977  0.15248  Biso   1.000  O
  O40      1.0000 0.68348  0.27925  0.18105  Biso   1.000  O
  O41      1.0000 0.84643  0.29917  0.17514  Biso   1.000  O
  O42      1.0000 0.22663  0.01697  0.23325  Biso   1.000  O
  O43      1.0000 0.14806  0.98148  0.16993  Biso   1.000  O
  O44      1.0000 0.15400  0.99187  0.13798  Biso   1.000  O
  O45      1.0000 0.16763  0.07195  0.17361  Biso   1.000  O
  O46      1.0000 0.19286  0.08723  0.14157  Biso   1.000  O
  N6       1.0000 0.90313  0.25387  0.17267  Biso   1.000  N
  C116     1.0000 0.85763  0.26717  0.16917  Biso   1.000  C
  H116     1.0000 0.83513  0.24837  0.16137  Biso   1.000  H
  C117     1.0000 0.90943  0.21077  0.16416  Biso   1.000  C
  H117     1.0000 0.89543  0.20957  0.15487  Biso   1.000  H
  H118     1.0000 0.88783  0.17357  0.16837  Biso   1.000  H
  H119     1.0000 0.94933  0.22147  0.16377  Biso   1.000  H
  C118     1.0000 0.93133  0.26977  0.18675  Biso   1.000  C
  H120     1.0000 0.91623  0.28987  0.19197  Biso   1.000  H
  H121     1.0000 0.97203  0.29417  0.18557  Biso   1.000  H
  H122     1.0000 0.92373  0.23557  0.19167  Biso   1.000  H
  O47      1.0000 0.49643  0.11247  0.10211  Biso   1.000  O
  O48      1.0000 0.36773  0.11487  0.09604  Biso   1.000  O
  C119     1.0000 0.48803  0.14847  0.09220  Biso   1.000  C
  H123     1.0000 0.52143  0.18007  0.08787  Biso   1.000  H
  H124     1.0000 0.47023  0.16397  0.09827  Biso   1.000  H
  C120     1.0000 0.38453  0.07157  0.09254  Biso   1.000  C
  H125     1.0000 0.36033  0.03667  0.08737  Biso   1.000  H
  H126     1.0000 0.39053  0.06027  0.10177  Biso   1.000  H
  N7       1.0000 0.39560  0.96970  0.49930  Biso   1.000  N
  C121     1.0000 0.38230  0.90910  0.49800  Biso   1.000  C
  H127     1.0000 0.38540  0.89400  0.48950  Biso   1.000  H
  C122     1.0000 0.42530  0.01090  0.48770  Biso   1.000  C
  H128     1.0000 0.43350  0.99190  0.48030  Biso   1.000  H
  H129     1.0000 0.46060  0.04260  0.49110  Biso   1.000  H
  H130     1.0000 0.40100  0.02490  0.48420  Biso   1.000  H
  C123     1.0000 0.37390  0.98730  0.51150  Biso   1.000  C
  H131     1.0000 0.38000  0.97140  0.51990  Biso   1.000  H
  H132     1.0000 0.33350  0.97330  0.51040  Biso   1.000  H
  H133     1.0000 0.39400  0.02850  0.51210  Biso   1.000  H
  C124     1.0000 0.52330  0.72030  0.52724  Biso   1.000  C
  C125     1.0000 0.55290  0.70390  0.53817  Biso   1.000  C
  C126     1.0000 0.61350  0.73590  0.53835  Biso   1.000  C
  H134     1.0000 0.63360  0.76570  0.53200  Biso   1.000  H
  C127     1.0000 0.64250  0.72140  0.54823  Biso   1.000  C
  H135     1.0000 0.68250  0.74190  0.54860  Biso   1.000  H
  C128     1.0000 0.61190  0.67690  0.55752  Biso   1.000  C
  C129     1.0000 0.55300  0.64680  0.55719  Biso   1.000  C
  H136     1.0000 0.53210  0.61750  0.56360  Biso   1.000  H
  C130     1.0000 0.52550  0.66140  0.54699  Biso   1.000  C
  H137     1.0000 0.48560  0.63980  0.54640  Biso   1.000  H
  C131     1.0000 0.61950  0.62290  0.57648  Biso   1.000  C
  H138     1.0000 0.59150  0.58760  0.57190  Biso   1.000  H
  H139     1.0000 0.59990  0.63310  0.58350  Biso   1.000  H
  C132     1.0000 0.64210  0.47250  0.51079  Biso   1.000  C
  C133     1.0000 0.64420  0.49270  0.52540  Biso   1.000  C
  C134     1.0000 0.59970  0.46230  0.53465  Biso   1.000  C
  H140     1.0000 0.56600  0.43010  0.53170  Biso   1.000  H
  C135     1.0000 0.60640  0.48090  0.54858  Biso   1.000  C
  H141     1.0000 0.57860  0.45770  0.55510  Biso   1.000  H
  C136     1.0000 0.64990  0.52930  0.55283  Biso   1.000  C
  C137     1.0000 0.69760  0.56060  0.54411  Biso   1.000  C
  H142     1.0000 0.73040  0.59340  0.54720  Biso   1.000  H
  C138     1.0000 0.69300  0.53980  0.53054  Biso   1.000  C
  H143     1.0000 0.72460  0.55880  0.52460  Biso   1.000  H
  C139     1.0000 0.69380  0.59680  0.57191  Biso   1.000  C
  H144     1.0000 0.70900  0.62540  0.56450  Biso   1.000  H
  H145     1.0000 0.72510  0.59280  0.57570  Biso   1.000  H
  C140     1.0000 0.43550  0.69190  0.48686  Biso   1.000  C
  C141     1.0000 0.46500  0.69680  0.47324  Biso   1.000  C
  C142     1.0000 0.51650  0.70330  0.47353  Biso   1.000  C
  H146     1.0000 0.53340  0.70470  0.48210  Biso   1.000  H
  C143     1.0000 0.54610  0.70770  0.46146  Biso   1.000  C
  H147     1.0000 0.58360  0.71460  0.46180  Biso   1.000  H
  C144     1.0000 0.51810  0.70160  0.44865  Biso   1.000  C
  C145     1.0000 0.46750  0.69590  0.44930  Biso   1.000  C
  H148     1.0000 0.44960  0.69470  0.44090  Biso   1.000  H
  C146     1.0000 0.43800  0.69170  0.46149  Biso   1.000  C
  H149     1.0000 0.40070  0.68550  0.46130  Biso   1.000  H
  O49      1.0000 0.56760  0.70260  0.44104  Biso   1.000  O
  O50      1.0000 0.54320  0.59420  0.43467  Biso   1.000  O
  C147     1.0000 0.56980  0.71650  0.42590  Biso   1.000  C
  H150     1.0000 0.57390  0.74910  0.42050  Biso   1.000  H
  H151     1.0000 0.52940  0.68960  0.42750  Biso   1.000  H
  C148     1.0000 0.57530  0.62470  0.42162  Biso   1.000  C
  H152     1.0000 0.53760  0.59830  0.41780  Biso   1.000  H
  H153     1.0000 0.60480  0.62160  0.41650  Biso   1.000  H
  C149     1.0000 0.57280  0.56360  0.44129  Biso   1.000  C
  C150     1.0000 0.63590  0.59020  0.44189  Biso   1.000  C
  H154     1.0000 0.66170  0.62140  0.43650  Biso   1.000  H
  C151     1.0000 0.65210  0.55940  0.45241  Biso   1.000  C
  H155     1.0000 0.69050  0.57320  0.45460  Biso   1.000  H
  C152     1.0000 0.61120  0.51250  0.45855  Biso   1.000  C
  C153     1.0000 0.55350  0.49470  0.45460  Biso   1.000  C
  H156     1.0000 0.52510  0.45880  0.45770  Biso   1.000  H
  C154     1.0000 0.53600  0.52550  0.44670  Biso   1.000  C
  H157     1.0000 0.49780  0.51600  0.44580  Biso   1.000  H
  C155     1.0000 0.62150  0.47950  0.46931  Biso   1.000  C
  Co7      1.0000 0.47172  0.76067  0.51339  Biso   1.000  Co
  Co8      1.0000 0.37957  0.80914  0.51097  Biso   1.000  Co
  O51      1.0000 0.64614  0.66707  0.56659  Biso   1.000  O
  O52      1.0000 0.55091  0.76323  0.51968  Biso   1.000  O
  O53      1.0000 0.46862  0.69091  0.52658  Biso   1.000  O
  O54      1.0000 0.45410  0.69335  0.49800  Biso   1.000  O
  O55      1.0000 0.38690  0.68690  0.48581  Biso   1.000  O
  O56      1.0000 0.38742  0.73757  0.51438  Biso   1.000  O
  O57      1.0000 0.36750  0.88060  0.50847  Biso   1.000  O
  O58      1.0000 0.64970  0.54300  0.56658  Biso   1.000  O
  O59      1.0000 0.68519  0.49992  0.50326  Biso   1.000  O
  O60      1.0000 0.67480  0.49547  0.47131  Biso   1.000  O
  O61      1.0000 0.59472  0.42902  0.50694  Biso   1.000  O
  O62      1.0000 0.57944  0.43897  0.47490  Biso   1.000  O
  N8       1.0000 0.41280  0.98260  0.50600  Biso   1.000  N
  C156     1.0000 0.39950  0.92380  0.50250  Biso   1.000  C
  H158     1.0000 0.41830  0.92010  0.49470  Biso   1.000  H
  C157     1.0000 0.45590  0.03200  0.49749  Biso   1.000  C
  H159     1.0000 0.45710  0.01920  0.48820  Biso   1.000  H
  H160     1.0000 0.49310  0.04760  0.50170  Biso   1.000  H
  H161     1.0000 0.44520  0.06120  0.49710  Biso   1.000  H
  C158     1.0000 0.39690  0.99490  0.52008  Biso   1.000  C
  H162     1.0000 0.37680  0.95970  0.52530  Biso   1.000  H
  H163     1.0000 0.37250  0.01120  0.51890  Biso   1.000  H
  H164     1.0000 0.43110  0.02150  0.52500  Biso   1.000  H
  O63      1.0000 0.55420  0.71730  0.43544  Biso   1.000  O
  O64      1.0000 0.55180  0.58620  0.42937  Biso   1.000  O
  C159     1.0000 0.51820  0.67290  0.42553  Biso   1.000  C
  H165     1.0000 0.48660  0.67470  0.42120  Biso   1.000  H
  H166     1.0000 0.50270  0.63960  0.43160  Biso   1.000  H
  C160     1.0000 0.59510  0.64630  0.42587  Biso   1.000  C
  H167     1.0000 0.63000  0.65700  0.42070  Biso   1.000  H
  H168     1.0000 0.60640  0.66360  0.43510  Biso   1.000  H
  N9       1.0000 0.06227  0.30303  0.83263  Biso   1.000  N
  C161     1.0000 0.04897  0.24243  0.83133  Biso   1.000  C
  H169     1.0000 0.05207  0.22733  0.82283  Biso   1.000  H
  C162     1.0000 0.09197  0.34423  0.82103  Biso   1.000  C
  H170     1.0000 0.10017  0.32523  0.81363  Biso   1.000  H
  H171     1.0000 0.12727  0.37593  0.82443  Biso   1.000  H
  H172     1.0000 0.06767  0.35823  0.81753  Biso   1.000  H
  C163     1.0000 0.04057  0.32063  0.84483  Biso   1.000  C
  H173     1.0000 0.04667  0.30473  0.85323  Biso   1.000  H
  H174     1.0000 0.00017  0.30663  0.84373  Biso   1.000  H
  H175     1.0000 0.06067  0.36183  0.84543  Biso   1.000  H
  C164     1.0000 0.18997  0.05363  0.86057  Biso   1.000  C
  C165     1.0000 0.21957  0.03723  0.87150  Biso   1.000  C
  C166     1.0000 0.28017  0.06923  0.87168  Biso   1.000  C
  H176     1.0000 0.30027  0.09903  0.86533  Biso   1.000  H
  C167     1.0000 0.30917  0.05473  0.88156  Biso   1.000  C
  H177     1.0000 0.34917  0.07523  0.88193  Biso   1.000  H
  C168     1.0000 0.27857  0.01023  0.89085  Biso   1.000  C
  C169     1.0000 0.21967  0.98013  0.89052  Biso   1.000  C
  H178     1.0000 0.19877  0.95083  0.89693  Biso   1.000  H
  C170     1.0000 0.19217  0.99473  0.88032  Biso   1.000  C
  H179     1.0000 0.15227  0.97313  0.87973  Biso   1.000  H
  C171     1.0000 0.28617  0.95623  0.90981  Biso   1.000  C
  H180     1.0000 0.25817  0.92093  0.90523  Biso   1.000  H
  H181     1.0000 0.26657  0.96643  0.91683  Biso   1.000  H
  C172     1.0000 0.30877  0.80583  0.84412  Biso   1.000  C
  C173     1.0000 0.31087  0.82603  0.85873  Biso   1.000  C
  C174     1.0000 0.26637  0.79563  0.86798  Biso   1.000  C
  H182     1.0000 0.23267  0.76343  0.86503  Biso   1.000  H
  C175     1.0000 0.27307  0.81423  0.88191  Biso   1.000  C
  H183     1.0000 0.24527  0.79103  0.88843  Biso   1.000  H
  C176     1.0000 0.31657  0.86263  0.88616  Biso   1.000  C
  C177     1.0000 0.36427  0.89393  0.87744  Biso   1.000  C
  H184     1.0000 0.39707  0.92673  0.88053  Biso   1.000  H
  C178     1.0000 0.35967  0.87313  0.86387  Biso   1.000  C
  H185     1.0000 0.39127  0.89213  0.85793  Biso   1.000  H
  C179     1.0000 0.36047  0.93013  0.90524  Biso   1.000  C
  H186     1.0000 0.37567  0.95873  0.89783  Biso   1.000  H
  H187     1.0000 0.39177  0.92613  0.90903  Biso   1.000  H
  C180     1.0000 0.10217  0.02523  0.82019  Biso   1.000  C
  C181     1.0000 0.13167  0.03013  0.80657  Biso   1.000  C
  C182     1.0000 0.18317  0.03663  0.80686  Biso   1.000  C
  H188     1.0000 0.20007  0.03803  0.81543  Biso   1.000  H
  C183     1.0000 0.21277  0.04103  0.79479  Biso   1.000  C
  H189     1.0000 0.25027  0.04793  0.79513  Biso   1.000  H
  C184     1.0000 0.18477  0.03493  0.78198  Biso   1.000  C
  C185     1.0000 0.13417  0.02923  0.78263  Biso   1.000  C
  H190     1.0000 0.11627  0.02803  0.77423  Biso   1.000  H
  C186     1.0000 0.10467  0.02503  0.79482  Biso   1.000  C
  H191     1.0000 0.06737  0.01883  0.79463  Biso   1.000  H
  O65      1.0000 0.23427  0.03593  0.77437  Biso   1.000  O
  O66      1.0000 0.20987  0.92753  0.76800  Biso   1.000  O
  C187     1.0000 0.23647  0.04983  0.75923  Biso   1.000  C
  H192     1.0000 0.24057  0.08243  0.75383  Biso   1.000  H
  H193     1.0000 0.19607  0.02293  0.76083  Biso   1.000  H
  C188     1.0000 0.24197  0.95803  0.75495  Biso   1.000  C
  H194     1.0000 0.20427  0.93163  0.75113  Biso   1.000  H
  H195     1.0000 0.27147  0.95493  0.74983  Biso   1.000  H
  C189     1.0000 0.23947  0.89693  0.77462  Biso   1.000  C
  C190     1.0000 0.30257  0.92353  0.77522  Biso   1.000  C
  H196     1.0000 0.32837  0.95473  0.76983  Biso   1.000  H
  C191     1.0000 0.31877  0.89273  0.78574  Biso   1.000  C
  H197     1.0000 0.35717  0.90653  0.78793  Biso   1.000  H
  C192     1.0000 0.27787  0.84583  0.79188  Biso   1.000  C
  C193     1.0000 0.22017  0.82803  0.78793  Biso   1.000  C
  H198     1.0000 0.19177  0.79213  0.79103  Biso   1.000  H
  C194     1.0000 0.20267  0.85883  0.78003  Biso   1.000  C
  H199     1.0000 0.16447  0.84933  0.77913  Biso   1.000  H
  C195     1.0000 0.28817  0.81283  0.80264  Biso   1.000  C
  Co9      1.0000 0.13839  0.09400  0.84673  Biso   1.000  Co
  Co10     1.0000 0.04624  0.14247  0.84430  Biso   1.000  Co
  O67      1.0000 0.31281  0.00040  0.89992  Biso   1.000  O
  O68      1.0000 0.21758  0.09656  0.85301  Biso   1.000  O
  O69      1.0000 0.13529  0.02424  0.85991  Biso   1.000  O
  O70      1.0000 0.12077  0.02668  0.83133  Biso   1.000  O
  O71      1.0000 0.05357  0.02023  0.81914  Biso   1.000  O
  O72      1.0000 0.05409  0.07090  0.84771  Biso   1.000  O
  O73      1.0000 0.03417  0.21393  0.84180  Biso   1.000  O
  O74      1.0000 0.31637  0.87633  0.89991  Biso   1.000  O
  O75      1.0000 0.35186  0.83325  0.83659  Biso   1.000  O
  O76      1.0000 0.34147  0.82880  0.80464  Biso   1.000  O
  O77      1.0000 0.26139  0.76235  0.84027  Biso   1.000  O
  O78      1.0000 0.24611  0.77230  0.80823  Biso   1.000  O
  N10      1.0000 0.07947  0.31593  0.83933  Biso   1.000  N
  C196     1.0000 0.06617  0.25713  0.83583  Biso   1.000  C
  H200     1.0000 0.08497  0.25343  0.82803  Biso   1.000  H
  C197     1.0000 0.12257  0.36533  0.83082  Biso   1.000  C
  H201     1.0000 0.12377  0.35253  0.82153  Biso   1.000  H
  H202     1.0000 0.15977  0.38093  0.83503  Biso   1.000  H
  H203     1.0000 0.11187  0.39453  0.83043  Biso   1.000  H
  C198     1.0000 0.06357  0.32823  0.85341  Biso   1.000  C
  H204     1.0000 0.04347  0.29303  0.85863  Biso   1.000  H
  H205     1.0000 0.03917  0.34453  0.85223  Biso   1.000  H
  H206     1.0000 0.09777  0.35483  0.85833  Biso   1.000  H
  O79      1.0000 0.22087  0.05063  0.76877  Biso   1.000  O
  O80      1.0000 0.21847  0.91953  0.76270  Biso   1.000  O
  C199     1.0000 0.18487  0.00623  0.75886  Biso   1.000  C
  H207     1.0000 0.15327  0.00803  0.75453  Biso   1.000  H
  H208     1.0000 0.16937  0.97293  0.76493  Biso   1.000  H
  C200     1.0000 0.26177  0.97963  0.75920  Biso   1.000  C
  H209     1.0000 0.29667  0.99033  0.75403  Biso   1.000  H
  H210     1.0000 0.27307  0.99693  0.76843  Biso   1.000  H
  N11      1.0000 0.72893  0.63637  0.16597  Biso   1.000  N
  C201     1.0000 0.71563  0.57577  0.16467  Biso   1.000  C
  H211     1.0000 0.71873  0.56067  0.15617  Biso   1.000  H
  C202     1.0000 0.75863  0.67757  0.15437  Biso   1.000  C
  H212     1.0000 0.76683  0.65857  0.14697  Biso   1.000  H
  H213     1.0000 0.79393  0.70927  0.15777  Biso   1.000  H
  H214     1.0000 0.73433  0.69157  0.15087  Biso   1.000  H
  C203     1.0000 0.70723  0.65397  0.17817  Biso   1.000  C
  H215     1.0000 0.71333  0.63807  0.18657  Biso   1.000  H
  H216     1.0000 0.66683  0.63997  0.17707  Biso   1.000  H
  H217     1.0000 0.72733  0.69517  0.17877  Biso   1.000  H
  C204     1.0000 0.85663  0.38697  0.19391  Biso   1.000  C
  C205     1.0000 0.88623  0.37057  0.20484  Biso   1.000  C
  C206     1.0000 0.94683  0.40257  0.20502  Biso   1.000  C
  H218     1.0000 0.96693  0.43237  0.19867  Biso   1.000  H
  C207     1.0000 0.97583  0.38807  0.21490  Biso   1.000  C
  H219     1.0000 0.01583  0.40857  0.21527  Biso   1.000  H
  C208     1.0000 0.94523  0.34357  0.22419  Biso   1.000  C
  C209     1.0000 0.88633  0.31347  0.22386  Biso   1.000  C
  H220     1.0000 0.86543  0.28417  0.23027  Biso   1.000  H
  C210     1.0000 0.85883  0.32807  0.21366  Biso   1.000  C
  H221     1.0000 0.81893  0.30647  0.21307  Biso   1.000  H
  C211     1.0000 0.95283  0.28957  0.24315  Biso   1.000  C
  H222     1.0000 0.92483  0.25427  0.23857  Biso   1.000  H
  H223     1.0000 0.93323  0.29977  0.25017  Biso   1.000  H
  C212     1.0000 0.97543  0.13917  0.17746  Biso   1.000  C
  C213     1.0000 0.97753  0.15937  0.19207  Biso   1.000  C
  C214     1.0000 0.93303  0.12897  0.20132  Biso   1.000  C
  H224     1.0000 0.89933  0.09677  0.19837  Biso   1.000  H
  C215     1.0000 0.93973  0.14757  0.21525  Biso   1.000  C
  H225     1.0000 0.91193  0.12437  0.22177  Biso   1.000  H
  C216     1.0000 0.98323  0.19597  0.21950  Biso   1.000  C
  C217     1.0000 0.03093  0.22727  0.21078  Biso   1.000  C
  H226     1.0000 0.06373  0.26007  0.21387  Biso   1.000  H
  C218     1.0000 0.02633  0.20647  0.19721  Biso   1.000  C
  H227     1.0000 0.05793  0.22547  0.19127  Biso   1.000  H
  C219     1.0000 0.02713  0.26347  0.23858  Biso   1.000  C
  H228     1.0000 0.04233  0.29207  0.23117  Biso   1.000  H
  H229     1.0000 0.05843  0.25947  0.24237  Biso   1.000  H
  C220     1.0000 0.76883  0.35857  0.15353  Biso   1.000  C
  C221     1.0000 0.79833  0.36347  0.13991  Biso   1.000  C
  C222     1.0000 0.84983  0.36997  0.14020  Biso   1.000  C
  H230     1.0000 0.86673  0.37137  0.14877  Biso   1.000  H
  C223     1.0000 0.87943  0.37437  0.12813  Biso   1.000  C
  H231     1.0000 0.91693  0.38127  0.12847  Biso   1.000  H
  C224     1.0000 0.85143  0.36827  0.11532  Biso   1.000  C
  C225     1.0000 0.80083  0.36257  0.11597  Biso   1.000  C
  H232     1.0000 0.78293  0.36137  0.10757  Biso   1.000  H
  C226     1.0000 0.77133  0.35837  0.12816  Biso   1.000  C
  H233     1.0000 0.73403  0.35217  0.12797  Biso   1.000  H
  O81      1.0000 0.90093  0.36927  0.10771  Biso   1.000  O
  O82      1.0000 0.87653  0.26087  0.10134  Biso   1.000  O
  C227     1.0000 0.90313  0.38317  0.09257  Biso   1.000  C
  H234     1.0000 0.90723  0.41577  0.08717  Biso   1.000  H
  H235     1.0000 0.86273  0.35627  0.09417  Biso   1.000  H
  C228     1.0000 0.90863  0.29137  0.08829  Biso   1.000  C
  H236     1.0000 0.87093  0.26497  0.08447  Biso   1.000  H
  H237     1.0000 0.93813  0.28827  0.08317  Biso   1.000  H
  C229     1.0000 0.90613  0.23027  0.10796  Biso   1.000  C
  C230     1.0000 0.96923  0.25687  0.10856  Biso   1.000  C
  H238     1.0000 0.99503  0.28807  0.10317  Biso   1.000  H
  C231     1.0000 0.98543  0.22607  0.11908  Biso   1.000  C
  H239     1.0000 0.02383  0.23987  0.12127  Biso   1.000  H
  C232     1.0000 0.94453  0.17917  0.12522  Biso   1.000  C
  C233     1.0000 0.88683  0.16137  0.12127  Biso   1.000  C
  H240     1.0000 0.85843  0.12547  0.12437  Biso   1.000  H
  C234     1.0000 0.86933  0.19217  0.11337  Biso   1.000  C
  H241     1.0000 0.83113  0.18267  0.11247  Biso   1.000  H
  C235     1.0000 0.95483  0.14617  0.13598  Biso   1.000  C
  Co11     1.0000 0.80505  0.42734  0.18006  Biso   1.000  Co
  Co12     1.0000 0.71290  0.47581  0.17764  Biso   1.000  Co
  O83      1.0000 0.97947  0.33374  0.23326  Biso   1.000  O
  O84      1.0000 0.88424  0.42990  0.18635  Biso   1.000  O
  O85      1.0000 0.80195  0.35758  0.19325  Biso   1.000  O
  O86      1.0000 0.78743  0.36002  0.16467  Biso   1.000  O
  O87      1.0000 0.72023  0.35357  0.15248  Biso   1.000  O
  O88      1.0000 0.72075  0.40424  0.18105  Biso   1.000  O
  O89      1.0000 0.70083  0.54727  0.17514  Biso   1.000  O
  O90      1.0000 0.98303  0.20967  0.23325  Biso   1.000  O
  O91      1.0000 0.01852  0.16659  0.16993  Biso   1.000  O
  O92      1.0000 0.00813  0.16214  0.13798  Biso   1.000  O
  O93      1.0000 0.92805  0.09569  0.17361  Biso   1.000  O
  O94      1.0000 0.91277  0.10564  0.14157  Biso   1.000  O
  N12      1.0000 0.74613  0.64927  0.17267  Biso   1.000  N
  C236     1.0000 0.73283  0.59047  0.16917  Biso   1.000  C
  H242     1.0000 0.75163  0.58677  0.16137  Biso   1.000  H
  C237     1.0000 0.78923  0.69867  0.16416  Biso   1.000  C
  H243     1.0000 0.79043  0.68587  0.15487  Biso   1.000  H
  H244     1.0000 0.82643  0.71427  0.16837  Biso   1.000  H
  H245     1.0000 0.77853  0.72787  0.16377  Biso   1.000  H
  C238     1.0000 0.73023  0.66157  0.18675  Biso   1.000  C
  H246     1.0000 0.71013  0.62637  0.19197  Biso   1.000  H
  H247     1.0000 0.70583  0.67787  0.18557  Biso   1.000  H
  H248     1.0000 0.76443  0.68817  0.19167  Biso   1.000  H
  O95      1.0000 0.88753  0.38397  0.10211  Biso   1.000  O
  O96      1.0000 0.88513  0.25287  0.09604  Biso   1.000  O
  C239     1.0000 0.85153  0.33957  0.09220  Biso   1.000  C
  H249     1.0000 0.81993  0.34137  0.08787  Biso   1.000  H
  H250     1.0000 0.83603  0.30627  0.09827  Biso   1.000  H
  C240     1.0000 0.92843  0.31297  0.09254  Biso   1.000  C
  H251     1.0000 0.96333  0.32367  0.08737  Biso   1.000  H
  H252     1.0000 0.93973  0.33027  0.10177  Biso   1.000  H
  N13      1.0000 0.03030  0.42590  0.49930  Biso   1.000  N
  C241     1.0000 0.09090  0.47320  0.49800  Biso   1.000  C
  H253     1.0000 0.10600  0.49140  0.48950  Biso   1.000  H
  C242     1.0000 0.98910  0.41440  0.48770  Biso   1.000  C
  H254     1.0000 0.00810  0.44160  0.48030  Biso   1.000  H
  H255     1.0000 0.95740  0.41800  0.49110  Biso   1.000  H
  H256     1.0000 0.97510  0.37610  0.48420  Biso   1.000  H
  C243     1.0000 0.01270  0.38660  0.51150  Biso   1.000  C
  H257     1.0000 0.02860  0.40860  0.51990  Biso   1.000  H
  H258     1.0000 0.02670  0.36020  0.51040  Biso   1.000  H
  H259     1.0000 0.97150  0.36550  0.51210  Biso   1.000  H
  C244     1.0000 0.27970  0.80300  0.52724  Biso   1.000  C
  C245     1.0000 0.29610  0.84900  0.53817  Biso   1.000  C
  C246     1.0000 0.26410  0.87760  0.53835  Biso   1.000  C
  H260     1.0000 0.23430  0.86790  0.53200  Biso   1.000  H
  C247     1.0000 0.27860  0.92110  0.54823  Biso   1.000  C
  H261     1.0000 0.25810  0.94060  0.54860  Biso   1.000  H
  C248     1.0000 0.32310  0.93500  0.55752  Biso   1.000  C
  C249     1.0000 0.35320  0.90620  0.55719  Biso   1.000  C
  H262     1.0000 0.38250  0.91460  0.56360  Biso   1.000  H
  C250     1.0000 0.33860  0.86410  0.54699  Biso   1.000  C
  H263     1.0000 0.36020  0.84580  0.54640  Biso   1.000  H
  C251     1.0000 0.37710  0.99660  0.57648  Biso   1.000  C
  H264     1.0000 0.41240  0.00390  0.57190  Biso   1.000  H
  H265     1.0000 0.36690  0.96680  0.58350  Biso   1.000  H
  C252     1.0000 0.52750  0.16960  0.51079  Biso   1.000  C
  C253     1.0000 0.50730  0.15150  0.52540  Biso   1.000  C
  C254     1.0000 0.53770  0.13740  0.53465  Biso   1.000  C
  H266     1.0000 0.56990  0.13590  0.53170  Biso   1.000  H
  C255     1.0000 0.51910  0.12550  0.54858  Biso   1.000  C
  H267     1.0000 0.54230  0.12090  0.55510  Biso   1.000  H
  C256     1.0000 0.47070  0.12060  0.55283  Biso   1.000  C
  C257     1.0000 0.43940  0.13700  0.54411  Biso   1.000  C
  H268     1.0000 0.40660  0.13700  0.54720  Biso   1.000  H
  C258     1.0000 0.46020  0.15320  0.53054  Biso   1.000  C
  H269     1.0000 0.44120  0.16580  0.52460  Biso   1.000  H
  C259     1.0000 0.40320  0.09700  0.57191  Biso   1.000  C
  H270     1.0000 0.37460  0.08360  0.56450  Biso   1.000  H
  H271     1.0000 0.40720  0.13230  0.57570  Biso   1.000  H
  C260     1.0000 0.30810  0.74360  0.48686  Biso   1.000  C
  C261     1.0000 0.30320  0.76820  0.47324  Biso   1.000  C
  C262     1.0000 0.29670  0.81320  0.47353  Biso   1.000  C
  H272     1.0000 0.29530  0.82870  0.48210  Biso   1.000  H
  C263     1.0000 0.29230  0.83840  0.46146  Biso   1.000  C
  H273     1.0000 0.28540  0.86900  0.46180  Biso   1.000  H
  C264     1.0000 0.29840  0.81650  0.44865  Biso   1.000  C
  C265     1.0000 0.30410  0.77160  0.44930  Biso   1.000  C
  H274     1.0000 0.30530  0.75490  0.44090  Biso   1.000  H
  C266     1.0000 0.30830  0.74630  0.46149  Biso   1.000  C
  H275     1.0000 0.31450  0.71520  0.46130  Biso   1.000  H
  O97      1.0000 0.29740  0.86500  0.44104  Biso   1.000  O
  O98      1.0000 0.40580  0.94900  0.43467  Biso   1.000  O
  C267     1.0000 0.28350  0.85330  0.42590  Biso   1.000  C
  H276     1.0000 0.25090  0.82480  0.42050  Biso   1.000  H
  H277     1.0000 0.31040  0.83980  0.42750  Biso   1.000  H
  C268     1.0000 0.37530  0.95060  0.42162  Biso   1.000  C
  H278     1.0000 0.40170  0.93930  0.41780  Biso   1.000  H
  H279     1.0000 0.37840  0.98320  0.41650  Biso   1.000  H
  C269     1.0000 0.43640  0.00920  0.44129  Biso   1.000  C
  C270     1.0000 0.40980  0.04570  0.44189  Biso   1.000  C
  H280     1.0000 0.37860  0.04030  0.43650  Biso   1.000  H
  C271     1.0000 0.44060  0.09270  0.45241  Biso   1.000  C
  H281     1.0000 0.42680  0.11730  0.45460  Biso   1.000  H
  C272     1.0000 0.48750  0.09870  0.45855  Biso   1.000  C
  C273     1.0000 0.50530  0.05880  0.45460  Biso   1.000  C
  H282     1.0000 0.54120  0.06630  0.45770  Biso   1.000  H
  C274     1.0000 0.47450  0.01050  0.44670  Biso   1.000  C
  H283     1.0000 0.48400  0.98180  0.44580  Biso   1.000  H
  C275     1.0000 0.52050  0.14200  0.46931  Biso   1.000  C
  Co13     1.0000 0.23933  0.71105  0.51339  Biso   1.000  Co
  Co14     1.0000 0.19086  0.57043  0.51097  Biso   1.000  Co
  O99      1.0000 0.33293  0.97907  0.56659  Biso   1.000  O
  O100     1.0000 0.23677  0.78768  0.51968  Biso   1.000  O
  O101     1.0000 0.30909  0.77771  0.52658  Biso   1.000  O
  O102     1.0000 0.30665  0.76075  0.49800  Biso   1.000  O
  O103     1.0000 0.31310  0.70000  0.48581  Biso   1.000  O
  O104     1.0000 0.26243  0.64985  0.51438  Biso   1.000  O
  O105     1.0000 0.11940  0.48690  0.50847  Biso   1.000  O
  O106     1.0000 0.45700  0.10670  0.56658  Biso   1.000  O
  O107     1.0000 0.50008  0.18527  0.50326  Biso   1.000  O
  O108     1.0000 0.50453  0.17933  0.47131  Biso   1.000  O
  O109     1.0000 0.57098  0.16570  0.50694  Biso   1.000  O
  O110     1.0000 0.56103  0.14047  0.47490  Biso   1.000  O
  N14      1.0000 0.01740  0.43020  0.50600  Biso   1.000  N
  C276     1.0000 0.07620  0.47570  0.50250  Biso   1.000  C
  H284     1.0000 0.07990  0.49820  0.49470  Biso   1.000  H
  C277     1.0000 0.96800  0.42390  0.49749  Biso   1.000  C
  H285     1.0000 0.98080  0.43790  0.48820  Biso   1.000  H
  H286     1.0000 0.95240  0.44550  0.50170  Biso   1.000  H
  H287     1.0000 0.93880  0.38400  0.49710  Biso   1.000  H
  C278     1.0000 0.00510  0.40200  0.52008  Biso   1.000  C
  H288     1.0000 0.04030  0.41710  0.52530  Biso   1.000  H
  H289     1.0000 0.98880  0.36130  0.51890  Biso   1.000  H
  H290     1.0000 0.97850  0.40960  0.52500  Biso   1.000  H
  O111     1.0000 0.28270  0.83690  0.43544  Biso   1.000  O
  O112     1.0000 0.41380  0.96560  0.42937  Biso   1.000  O
  C279     1.0000 0.32710  0.84530  0.42553  Biso   1.000  C
  H291     1.0000 0.32530  0.81190  0.42120  Biso   1.000  H
  H292     1.0000 0.36040  0.86310  0.43160  Biso   1.000  H
  C280     1.0000 0.35370  0.94880  0.42587  Biso   1.000  C
  H293     1.0000 0.34300  0.97300  0.42070  Biso   1.000  H
  H294     1.0000 0.33640  0.94280  0.43510  Biso   1.000  H
  N15      1.0000 0.69697  0.75923  0.83263  Biso   1.000  N
  C281     1.0000 0.75757  0.80653  0.83133  Biso   1.000  C
  H295     1.0000 0.77267  0.82473  0.82283  Biso   1.000  H
  C282     1.0000 0.65577  0.74773  0.82103  Biso   1.000  C
  H296     1.0000 0.67477  0.77493  0.81363  Biso   1.000  H
  H297     1.0000 0.62407  0.75133  0.82443  Biso   1.000  H
  H298     1.0000 0.64177  0.70943  0.81753  Biso   1.000  H
  C283     1.0000 0.67937  0.71993  0.84483  Biso   1.000  C
  H299     1.0000 0.69527  0.74193  0.85323  Biso   1.000  H
  H300     1.0000 0.69337  0.69353  0.84373  Biso   1.000  H
  H301     1.0000 0.63817  0.69883  0.84543  Biso   1.000  H
  C284     1.0000 0.94637  0.13633  0.86057  Biso   1.000  C
  C285     1.0000 0.96277  0.18233  0.87150  Biso   1.000  C
  C286     1.0000 0.93077  0.21093  0.87168  Biso   1.000  C
  H302     1.0000 0.90097  0.20123  0.86533  Biso   1.000  H
  C287     1.0000 0.94527  0.25443  0.88156  Biso   1.000  C
  H303     1.0000 0.92477  0.27393  0.88193  Biso   1.000  H
  C288     1.0000 0.98977  0.26833  0.89085  Biso   1.000  C
  C289     1.0000 0.01987  0.23953  0.89052  Biso   1.000  C
  H304     1.0000 0.04917  0.24793  0.89693  Biso   1.000  H
  C290     1.0000 0.00527  0.19743  0.88032  Biso   1.000  C
  H305     1.0000 0.02687  0.17913  0.87973  Biso   1.000  H
  C291     1.0000 0.04377  0.32993  0.90981  Biso   1.000  C
  H306     1.0000 0.07907  0.33723  0.90523  Biso   1.000  H
  H307     1.0000 0.03357  0.30013  0.91683  Biso   1.000  H
  C292     1.0000 0.19417  0.50293  0.84412  Biso   1.000  C
  C293     1.0000 0.17397  0.48483  0.85873  Biso   1.000  C
  C294     1.0000 0.20437  0.47073  0.86798  Biso   1.000  C
  H308     1.0000 0.23657  0.46923  0.86503  Biso   1.000  H
  C295     1.0000 0.18577  0.45883  0.88191  Biso   1.000  C
  H309     1.0000 0.20897  0.45423  0.88843  Biso   1.000  H
  C296     1.0000 0.13737  0.45393  0.88616  Biso   1.000  C
  C297     1.0000 0.10607  0.47033  0.87744  Biso   1.000  C
  H310     1.0000 0.07327  0.47033  0.88053  Biso   1.000  H
  C298     1.0000 0.12687  0.48653  0.86387  Biso   1.000  C
  H311     1.0000 0.10787  0.49913  0.85793  Biso   1.000  H
  C299     1.0000 0.06987  0.43033  0.90524  Biso   1.000  C
  H312     1.0000 0.04127  0.41693  0.89783  Biso   1.000  H
  H313     1.0000 0.07387  0.46563  0.90903  Biso   1.000  H
  C300     1.0000 0.97477  0.07693  0.82019  Biso   1.000  C
  C301     1.0000 0.96987  0.10153  0.80657  Biso   1.000  C
  C302     1.0000 0.96337  0.14653  0.80686  Biso   1.000  C
  H314     1.0000 0.96197  0.16203  0.81543  Biso   1.000  H
  C303     1.0000 0.95897  0.17173  0.79479  Biso   1.000  C
  H315     1.0000 0.95207  0.20233  0.79513  Biso   1.000  H
  C304     1.0000 0.96507  0.14983  0.78198  Biso   1.000  C
  C305     1.0000 0.97077  0.10493  0.78263  Biso   1.000  C
  H316     1.0000 0.97197  0.08823  0.77423  Biso   1.000  H
  C306     1.0000 0.97497  0.07963  0.79482  Biso   1.000  C
  H317     1.0000 0.98117  0.04853  0.79463  Biso   1.000  H
  O113     1.0000 0.96407  0.19833  0.77437  Biso   1.000  O
  O114     1.0000 0.07247  0.28233  0.76800  Biso   1.000  O
  C307     1.0000 0.95017  0.18663  0.75923  Biso   1.000  C
  H318     1.0000 0.91757  0.15813  0.75383  Biso   1.000  H
  H319     1.0000 0.97707  0.17313  0.76083  Biso   1.000  H
  C308     1.0000 0.04197  0.28393  0.75495  Biso   1.000  C
  H320     1.0000 0.06837  0.27263  0.75113  Biso   1.000  H
  H321     1.0000 0.04507  0.31653  0.74983  Biso   1.000  H
  C309     1.0000 0.10307  0.34253  0.77462  Biso   1.000  C
  C310     1.0000 0.07647  0.37903  0.77522  Biso   1.000  C
  H322     1.0000 0.04527  0.37363  0.76983  Biso   1.000  H
  C311     1.0000 0.10727  0.42603  0.78574  Biso   1.000  C
  H323     1.0000 0.09347  0.45063  0.78793  Biso   1.000  H
  C312     1.0000 0.15417  0.43203  0.79188  Biso   1.000  C
  C313     1.0000 0.17197  0.39213  0.78793  Biso   1.000  C
  H324     1.0000 0.20787  0.39963  0.79103  Biso   1.000  H
  C314     1.0000 0.14117  0.34383  0.78003  Biso   1.000  C
  H325     1.0000 0.15067  0.31513  0.77913  Biso   1.000  H
  C315     1.0000 0.18717  0.47533  0.80264  Biso   1.000  C
  Co15     1.0000 0.90600  0.04438  0.84673  Biso   1.000  Co
  Co16     1.0000 0.85753  0.90376  0.84430  Biso   1.000  Co
  O115     1.0000 0.99960  0.31240  0.89992  Biso   1.000  O
  O116     1.0000 0.90344  0.12101  0.85301  Biso   1.000  O
  O117     1.0000 0.97576  0.11104  0.85991  Biso   1.000  O
  O118     1.0000 0.97332  0.09408  0.83133  Biso   1.000  O
  O119     1.0000 0.97977  0.03333  0.81914  Biso   1.000  O
  O120     1.0000 0.92910  0.98318  0.84771  Biso   1.000  O
  O121     1.0000 0.78607  0.82023  0.84180  Biso   1.000  O
  O122     1.0000 0.12367  0.44003  0.89991  Biso   1.000  O
  O123     1.0000 0.16675  0.51860  0.83659  Biso   1.000  O
  O124     1.0000 0.17120  0.51266  0.80464  Biso   1.000  O
  O125     1.0000 0.23765  0.49903  0.84027  Biso   1.000  O
  O126     1.0000 0.22770  0.47380  0.80823  Biso   1.000  O
  N16      1.0000 0.68407  0.76353  0.83933  Biso   1.000  N
  C316     1.0000 0.74287  0.80903  0.83583  Biso   1.000  C
  H326     1.0000 0.74657  0.83153  0.82803  Biso   1.000  H
  C317     1.0000 0.63467  0.75723  0.83082  Biso   1.000  C
  H327     1.0000 0.64747  0.77123  0.82153  Biso   1.000  H
  H328     1.0000 0.61907  0.77883  0.83503  Biso   1.000  H
  H329     1.0000 0.60547  0.71733  0.83043  Biso   1.000  H
  C318     1.0000 0.67177  0.73533  0.85341  Biso   1.000  C
  H330     1.0000 0.70697  0.75043  0.85863  Biso   1.000  H
  H331     1.0000 0.65547  0.69463  0.85223  Biso   1.000  H
  H332     1.0000 0.64517  0.74293  0.85833  Biso   1.000  H
  O127     1.0000 0.94937  0.17023  0.76877  Biso   1.000  O
  O128     1.0000 0.08047  0.29893  0.76270  Biso   1.000  O
  C319     1.0000 0.99377  0.17863  0.75886  Biso   1.000  C
  H333     1.0000 0.99197  0.14523  0.75453  Biso   1.000  H
  H334     1.0000 0.02707  0.19643  0.76493  Biso   1.000  H
  C320     1.0000 0.02037  0.28213  0.75920  Biso   1.000  C
  H335     1.0000 0.00967  0.30633  0.75403  Biso   1.000  H
  H336     1.0000 0.00307  0.27613  0.76843  Biso   1.000  H
  N17      1.0000 0.36363  0.09257  0.16597  Biso   1.000  N
  C321     1.0000 0.42423  0.13987  0.16467  Biso   1.000  C
  H337     1.0000 0.43933  0.15807  0.15617  Biso   1.000  H
  C322     1.0000 0.32243  0.08107  0.15437  Biso   1.000  C
  H338     1.0000 0.34143  0.10827  0.14697  Biso   1.000  H
  H339     1.0000 0.29073  0.08467  0.15777  Biso   1.000  H
  H340     1.0000 0.30843  0.04277  0.15087  Biso   1.000  H
  C323     1.0000 0.34603  0.05327  0.17817  Biso   1.000  C
  H341     1.0000 0.36193  0.07527  0.18657  Biso   1.000  H
  H342     1.0000 0.36003  0.02687  0.17707  Biso   1.000  H
  H343     1.0000 0.30483  0.03217  0.17877  Biso   1.000  H
  C324     1.0000 0.61303  0.46967  0.19391  Biso   1.000  C
  C325     1.0000 0.62943  0.51567  0.20484  Biso   1.000  C
  C326     1.0000 0.59743  0.54427  0.20502  Biso   1.000  C
  H344     1.0000 0.56763  0.53457  0.19867  Biso   1.000  H
  C327     1.0000 0.61193  0.58777  0.21490  Biso   1.000  C
  H345     1.0000 0.59143  0.60727  0.21527  Biso   1.000  H
  C328     1.0000 0.65643  0.60167  0.22419  Biso   1.000  C
  C329     1.0000 0.68653  0.57287  0.22386  Biso   1.000  C
  H346     1.0000 0.71583  0.58127  0.23027  Biso   1.000  H
  C330     1.0000 0.67193  0.53077  0.21366  Biso   1.000  C
  H347     1.0000 0.69353  0.51247  0.21307  Biso   1.000  H
  C331     1.0000 0.71043  0.66327  0.24315  Biso   1.000  C
  H348     1.0000 0.74573  0.67057  0.23857  Biso   1.000  H
  H349     1.0000 0.70023  0.63347  0.25017  Biso   1.000  H
  C332     1.0000 0.86083  0.83627  0.17746  Biso   1.000  C
  C333     1.0000 0.84063  0.81817  0.19207  Biso   1.000  C
  C334     1.0000 0.87103  0.80407  0.20132  Biso   1.000  C
  H350     1.0000 0.90323  0.80257  0.19837  Biso   1.000  H
  C335     1.0000 0.85243  0.79217  0.21525  Biso   1.000  C
  H351     1.0000 0.87563  0.78757  0.22177  Biso   1.000  H
  C336     1.0000 0.80403  0.78727  0.21950  Biso   1.000  C
  C337     1.0000 0.77273  0.80367  0.21078  Biso   1.000  C
  H352     1.0000 0.73993  0.80367  0.21387  Biso   1.000  H
  C338     1.0000 0.79353  0.81987  0.19721  Biso   1.000  C
  H353     1.0000 0.77453  0.83247  0.19127  Biso   1.000  H
  C339     1.0000 0.73653  0.76367  0.23858  Biso   1.000  C
  H354     1.0000 0.70793  0.75027  0.23117  Biso   1.000  H
  H355     1.0000 0.74053  0.79897  0.24237  Biso   1.000  H
  C340     1.0000 0.64143  0.41027  0.15353  Biso   1.000  C
  C341     1.0000 0.63653  0.43487  0.13991  Biso   1.000  C
  C342     1.0000 0.63003  0.47987  0.14020  Biso   1.000  C
  H356     1.0000 0.62863  0.49537  0.14877  Biso   1.000  H
  C343     1.0000 0.62563  0.50507  0.12813  Biso   1.000  C
  H357     1.0000 0.61873  0.53567  0.12847  Biso   1.000  H
  C344     1.0000 0.63173  0.48317  0.11532  Biso   1.000  C
  C345     1.0000 0.63743  0.43827  0.11597  Biso   1.000  C
  H358     1.0000 0.63863  0.42157  0.10757  Biso   1.000  H
  C346     1.0000 0.64163  0.41297  0.12816  Biso   1.000  C
  H359     1.0000 0.64783  0.38187  0.12797  Biso   1.000  H
  O129     1.0000 0.63073  0.53167  0.10771  Biso   1.000  O
  O130     1.0000 0.73913  0.61567  0.10134  Biso   1.000  O
  C347     1.0000 0.61683  0.51997  0.09257  Biso   1.000  C
  H360     1.0000 0.58423  0.49147  0.08717  Biso   1.000  H
  H361     1.0000 0.64373  0.50647  0.09417  Biso   1.000  H
  C348     1.0000 0.70863  0.61727  0.08829  Biso   1.000  C
  H362     1.0000 0.73503  0.60597  0.08447  Biso   1.000  H
  H363     1.0000 0.71173  0.64987  0.08317  Biso   1.000  H
  C349     1.0000 0.76973  0.67587  0.10796  Biso   1.000  C
  C350     1.0000 0.74313  0.71237  0.10856  Biso   1.000  C
  H364     1.0000 0.71193  0.70697  0.10317  Biso   1.000  H
  C351     1.0000 0.77393  0.75937  0.11908  Biso   1.000  C
  H365     1.0000 0.76013  0.78397  0.12127  Biso   1.000  H
  C352     1.0000 0.82083  0.76537  0.12522  Biso   1.000  C
  C353     1.0000 0.83863  0.72547  0.12127  Biso   1.000  C
  H366     1.0000 0.87453  0.73297  0.12437  Biso   1.000  H
  C354     1.0000 0.80783  0.67717  0.11337  Biso   1.000  C
  H367     1.0000 0.81733  0.64847  0.11247  Biso   1.000  H
  C355     1.0000 0.85383  0.80867  0.13598  Biso   1.000  C
  Co17     1.0000 0.57266  0.37772  0.18006  Biso   1.000  Co
  Co18     1.0000 0.52419  0.23710  0.17764  Biso   1.000  Co
  O131     1.0000 0.66626  0.64574  0.23326  Biso   1.000  O
  O132     1.0000 0.57010  0.45435  0.18635  Biso   1.000  O
  O133     1.0000 0.64242  0.44438  0.19325  Biso   1.000  O
  O134     1.0000 0.63998  0.42742  0.16467  Biso   1.000  O
  O135     1.0000 0.64643  0.36667  0.15248  Biso   1.000  O
  O136     1.0000 0.59576  0.31652  0.18105  Biso   1.000  O
  O137     1.0000 0.45273  0.15357  0.17514  Biso   1.000  O
  O138     1.0000 0.79033  0.77337  0.23325  Biso   1.000  O
  O139     1.0000 0.83341  0.85194  0.16993  Biso   1.000  O
  O140     1.0000 0.83786  0.84600  0.13798  Biso   1.000  O
  O141     1.0000 0.90431  0.83237  0.17361  Biso   1.000  O
  O142     1.0000 0.89436  0.80714  0.14157  Biso   1.000  O
  N18      1.0000 0.35073  0.09687  0.17267  Biso   1.000  N
  C356     1.0000 0.40953  0.14237  0.16917  Biso   1.000  C
  H368     1.0000 0.41323  0.16487  0.16137  Biso   1.000  H
  C357     1.0000 0.30133  0.09057  0.16416  Biso   1.000  C
  H369     1.0000 0.31413  0.10457  0.15487  Biso   1.000  H
  H370     1.0000 0.28573  0.11217  0.16837  Biso   1.000  H
  H371     1.0000 0.27213  0.05067  0.16377  Biso   1.000  H
  C358     1.0000 0.33843  0.06867  0.18675  Biso   1.000  C
  H372     1.0000 0.37363  0.08377  0.19197  Biso   1.000  H
  H373     1.0000 0.32213  0.02797  0.18557  Biso   1.000  H
  H374     1.0000 0.31183  0.07627  0.19167  Biso   1.000  H
  O143     1.0000 0.61603  0.50357  0.10211  Biso   1.000  O
  O144     1.0000 0.74713  0.63227  0.09604  Biso   1.000  O
  C359     1.0000 0.66043  0.51197  0.09220  Biso   1.000  C
  H375     1.0000 0.65863  0.47857  0.08787  Biso   1.000  H
  H376     1.0000 0.69373  0.52977  0.09827  Biso   1.000  H
  C360     1.0000 0.68703  0.61547  0.09254  Biso   1.000  C
  H377     1.0000 0.67633  0.63967  0.08737  Biso   1.000  H
  H378     1.0000 0.66973  0.60947  0.10177  Biso   1.000  H
  N19      1.0000 0.60440  0.57410  0.00070  Biso   1.000  N
  C361     1.0000 0.61770  0.52680  0.00200  Biso   1.000  C
  H379     1.0000 0.61460  0.50860  0.01050  Biso   1.000  H
  C362     1.0000 0.57470  0.58560  0.01230  Biso   1.000  C
  H380     1.0000 0.56650  0.55840  0.01970  Biso   1.000  H
  H381     1.0000 0.53940  0.58200  0.00890  Biso   1.000  H
  H382     1.0000 0.59900  0.62390  0.01580  Biso   1.000  H
  C363     1.0000 0.62610  0.61340  0.98850  Biso   1.000  C
  H383     1.0000 0.62000  0.59140  0.98010  Biso   1.000  H
  H384     1.0000 0.66650  0.63980  0.98960  Biso   1.000  H
  H385     1.0000 0.60600  0.63450  0.98790  Biso   1.000  H
  C364     1.0000 0.47670  0.19700  0.97276  Biso   1.000  C
  C365     1.0000 0.44710  0.15100  0.96183  Biso   1.000  C
  C366     1.0000 0.38650  0.12240  0.96165  Biso   1.000  C
  H386     1.0000 0.36640  0.13210  0.96800  Biso   1.000  H
  C367     1.0000 0.35750  0.07890  0.95177  Biso   1.000  C
  H387     1.0000 0.31750  0.05940  0.95140  Biso   1.000  H
  C368     1.0000 0.38810  0.06500  0.94248  Biso   1.000  C
  C369     1.0000 0.44700  0.09380  0.94281  Biso   1.000  C
  H388     1.0000 0.46790  0.08540  0.93640  Biso   1.000  H
  C370     1.0000 0.47450  0.13590  0.95301  Biso   1.000  C
  H389     1.0000 0.51440  0.15420  0.95360  Biso   1.000  H
  C371     1.0000 0.38050  0.00340  0.92352  Biso   1.000  C
  H390     1.0000 0.40850  0.99610  0.92810  Biso   1.000  H
  H391     1.0000 0.40010  0.03320  0.91650  Biso   1.000  H
  C372     1.0000 0.35790  0.83040  0.98921  Biso   1.000  C
  C373     1.0000 0.35580  0.84850  0.97460  Biso   1.000  C
  C374     1.0000 0.40030  0.86260  0.96535  Biso   1.000  C
  H392     1.0000 0.43400  0.86410  0.96830  Biso   1.000  H
  C375     1.0000 0.39360  0.87450  0.95142  Biso   1.000  C
  H393     1.0000 0.42140  0.87910  0.94490  Biso   1.000  H
  C376     1.0000 0.35010  0.87940  0.94717  Biso   1.000  C
  C377     1.0000 0.30240  0.86300  0.95589  Biso   1.000  C
  H394     1.0000 0.26960  0.86300  0.95280  Biso   1.000  H
  C378     1.0000 0.30700  0.84680  0.96946  Biso   1.000  C
  H395     1.0000 0.27540  0.83420  0.97540  Biso   1.000  H
  C379     1.0000 0.30620  0.90300  0.92809  Biso   1.000  C
  H396     1.0000 0.29100  0.91640  0.93550  Biso   1.000  H
  H397     1.0000 0.27490  0.86770  0.92430  Biso   1.000  H
  C380     1.0000 0.56450  0.25640  0.01314  Biso   1.000  C
  C381     1.0000 0.53500  0.23180  0.02676  Biso   1.000  C
  C382     1.0000 0.48350  0.18680  0.02647  Biso   1.000  C
  H398     1.0000 0.46660  0.17130  0.01790  Biso   1.000  H
  C383     1.0000 0.45390  0.16160  0.03854  Biso   1.000  C
  H399     1.0000 0.41640  0.13100  0.03820  Biso   1.000  H
  C384     1.0000 0.48190  0.18350  0.05135  Biso   1.000  C
  C385     1.0000 0.53250  0.22840  0.05070  Biso   1.000  C
  H400     1.0000 0.55040  0.24510  0.05910  Biso   1.000  H
  C386     1.0000 0.56200  0.25370  0.03851  Biso   1.000  C
  H401     1.0000 0.59930  0.28480  0.03870  Biso   1.000  H
  O145     1.0000 0.43240  0.13500  0.05896  Biso   1.000  O
  O146     1.0000 0.45680  0.05100  0.06533  Biso   1.000  O
  C387     1.0000 0.43020  0.14670  0.07410  Biso   1.000  C
  H402     1.0000 0.42610  0.17520  0.07950  Biso   1.000  H
  H403     1.0000 0.47060  0.16020  0.07250  Biso   1.000  H
  C388     1.0000 0.42470  0.04940  0.07838  Biso   1.000  C
  H404     1.0000 0.46240  0.06070  0.08220  Biso   1.000  H
  H405     1.0000 0.39520  0.01680  0.08350  Biso   1.000  H
  C389     1.0000 0.42720  0.99080  0.05871  Biso   1.000  C
  C390     1.0000 0.36410  0.95430  0.05811  Biso   1.000  C
  H406     1.0000 0.33830  0.95970  0.06350  Biso   1.000  H
  C391     1.0000 0.34790  0.90730  0.04759  Biso   1.000  C
  H407     1.0000 0.30950  0.88270  0.04540  Biso   1.000  H
  C392     1.0000 0.38880  0.90130  0.04145  Biso   1.000  C
  C393     1.0000 0.44650  0.94120  0.04540  Biso   1.000  C
  H408     1.0000 0.47490  0.93370  0.04230  Biso   1.000  H
  C394     1.0000 0.46400  0.98950  0.05330  Biso   1.000  C
  H409     1.0000 0.50220  0.01820  0.05420  Biso   1.000  H
  C395     1.0000 0.37850  0.85800  0.03069  Biso   1.000  C
  Co19     1.0000 0.52828  0.28895  0.98661  Biso   1.000  Co
  Co20     1.0000 0.62043  0.42957  0.98903  Biso   1.000  Co
  O147     1.0000 0.35386  0.02093  0.93341  Biso   1.000  O
  O148     1.0000 0.44909  0.21232  0.98032  Biso   1.000  O
  O149     1.0000 0.53138  0.22229  0.97342  Biso   1.000  O
  O150     1.0000 0.54590  0.23925  0.00200  Biso   1.000  O
  O151     1.0000 0.61310  0.30000  0.01419  Biso   1.000  O
  O152     1.0000 0.61258  0.35015  0.98562  Biso   1.000  O
  O153     1.0000 0.63250  0.51310  0.99153  Biso   1.000  O
  O154     1.0000 0.35030  0.89330  0.93342  Biso   1.000  O
  O155     1.0000 0.31481  0.81473  0.99674  Biso   1.000  O
  O156     1.0000 0.32520  0.82067  0.02869  Biso   1.000  O
  O157     1.0000 0.40528  0.83430  0.99306  Biso   1.000  O
  O158     1.0000 0.42056  0.85953  0.02510  Biso   1.000  O
  N20      1.0000 0.58720  0.56980  0.99400  Biso   1.000  N
  C396     1.0000 0.60050  0.52430  0.99750  Biso   1.000  C
  H410     1.0000 0.58170  0.50180  0.00530  Biso   1.000  H
  C397     1.0000 0.54410  0.57610  0.00251  Biso   1.000  C
  H411     1.0000 0.54290  0.56210  0.01180  Biso   1.000  H
  H412     1.0000 0.50690  0.55450  0.99830  Biso   1.000  H
  H413     1.0000 0.55480  0.61600  0.00290  Biso   1.000  H
  C398     1.0000 0.60310  0.59800  0.97992  Biso   1.000  C
  H414     1.0000 0.62320  0.58290  0.97470  Biso   1.000  H
  H415     1.0000 0.62750  0.63870  0.98110  Biso   1.000  H
  H416     1.0000 0.56890  0.59040  0.97500  Biso   1.000  H
  O159     1.0000 0.44580  0.16310  0.06456  Biso   1.000  O
  O160     1.0000 0.44820  0.03440  0.07063  Biso   1.000  O
  C399     1.0000 0.48180  0.15470  0.07447  Biso   1.000  C
  H417     1.0000 0.51340  0.18810  0.07880  Biso   1.000  H
  H418     1.0000 0.49730  0.13690  0.06840  Biso   1.000  H
  C400     1.0000 0.40490  0.05120  0.07413  Biso   1.000  C
  H419     1.0000 0.37000  0.02700  0.07930  Biso   1.000  H
  H420     1.0000 0.39360  0.05720  0.06490  Biso   1.000  H
  N21      1.0000 0.27107  0.90743  0.33403  Biso   1.000  N
  C401     1.0000 0.28437  0.86013  0.33533  Biso   1.000  C
  H421     1.0000 0.28127  0.84193  0.34383  Biso   1.000  H
  C402     1.0000 0.24137  0.91893  0.34563  Biso   1.000  C
  H422     1.0000 0.23317  0.89173  0.35303  Biso   1.000  H
  H423     1.0000 0.20607  0.91533  0.34223  Biso   1.000  H
  H424     1.0000 0.26567  0.95723  0.34913  Biso   1.000  H
  C403     1.0000 0.29277  0.94673  0.32183  Biso   1.000  C
  H425     1.0000 0.28667  0.92473  0.31343  Biso   1.000  H
  H426     1.0000 0.33317  0.97313  0.32293  Biso   1.000  H
  H427     1.0000 0.27267  0.96783  0.32123  Biso   1.000  H
  C404     1.0000 0.14337  0.53033  0.30609  Biso   1.000  C
  C405     1.0000 0.11377  0.48433  0.29516  Biso   1.000  C
  C406     1.0000 0.05317  0.45573  0.29498  Biso   1.000  C
  H428     1.0000 0.03307  0.46543  0.30133  Biso   1.000  H
  C407     1.0000 0.02417  0.41223  0.28510  Biso   1.000  C
  H429     1.0000 0.98417  0.39273  0.28473  Biso   1.000  H
  C408     1.0000 0.05477  0.39833  0.27581  Biso   1.000  C
  C409     1.0000 0.11367  0.42713  0.27614  Biso   1.000  C
  H430     1.0000 0.13457  0.41873  0.26973  Biso   1.000  H
  C410     1.0000 0.14117  0.46923  0.28634  Biso   1.000  C
  H431     1.0000 0.18107  0.48753  0.28693  Biso   1.000  H
  C411     1.0000 0.04717  0.33673  0.25685  Biso   1.000  C
  H432     1.0000 0.07517  0.32943  0.26143  Biso   1.000  H
  H433     1.0000 0.06677  0.36653  0.24983  Biso   1.000  H
  C412     1.0000 0.02457  0.16373  0.32254  Biso   1.000  C
  C413     1.0000 0.02247  0.18183  0.30793  Biso   1.000  C
  C414     1.0000 0.06697  0.19593  0.29868  Biso   1.000  C
  H434     1.0000 0.10067  0.19743  0.30163  Biso   1.000  H
  C415     1.0000 0.06027  0.20783  0.28475  Biso   1.000  C
  H435     1.0000 0.08807  0.21243  0.27823  Biso   1.000  H
  C416     1.0000 0.01677  0.21273  0.28050  Biso   1.000  C
  C417     1.0000 0.96907  0.19633  0.28922  Biso   1.000  C
  H436     1.0000 0.93627  0.19633  0.28613  Biso   1.000  H
  C418     1.0000 0.97367  0.18013  0.30279  Biso   1.000  C
  H437     1.0000 0.94207  0.16753  0.30873  Biso   1.000  H
  C419     1.0000 0.97287  0.23633  0.26142  Biso   1.000  C
  H438     1.0000 0.95767  0.24973  0.26883  Biso   1.000  H
  H439     1.0000 0.94157  0.20103  0.25763  Biso   1.000  H
  C420     1.0000 0.23117  0.58973  0.34647  Biso   1.000  C
  C421     1.0000 0.20167  0.56513  0.36009  Biso   1.000  C
  C422     1.0000 0.15017  0.52013  0.35980  Biso   1.000  C
  H440     1.0000 0.13327  0.50463  0.35123  Biso   1.000  H
  C423     1.0000 0.12057  0.49493  0.37187  Biso   1.000  C
  H441     1.0000 0.08307  0.46433  0.37153  Biso   1.000  H
  C424     1.0000 0.14857  0.51683  0.38468  Biso   1.000  C
  C425     1.0000 0.19917  0.56173  0.38403  Biso   1.000  C
  H442     1.0000 0.21707  0.57843  0.39243  Biso   1.000  H
  C426     1.0000 0.22867  0.58703  0.37184  Biso   1.000  C
  H443     1.0000 0.26597  0.61813  0.37203  Biso   1.000  H
  O161     1.0000 0.09907  0.46833  0.39229  Biso   1.000  O
  O162     1.0000 0.12347  0.38433  0.39866  Biso   1.000  O
  C427     1.0000 0.09687  0.48003  0.40743  Biso   1.000  C
  H444     1.0000 0.09277  0.50853  0.41283  Biso   1.000  H
  H445     1.0000 0.13727  0.49353  0.40583  Biso   1.000  H
  C428     1.0000 0.09137  0.38273  0.41171  Biso   1.000  C
  H446     1.0000 0.12907  0.39403  0.41553  Biso   1.000  H
  H447     1.0000 0.06187  0.35013  0.41683  Biso   1.000  H
  C429     1.0000 0.09387  0.32413  0.39204  Biso   1.000  C
  C430     1.0000 0.03077  0.28763  0.39144  Biso   1.000  C
  H448     1.0000 0.00497  0.29303  0.39683  Biso   1.000  H
  C431     1.0000 0.01457  0.24063  0.38092  Biso   1.000  C
  H449     1.0000 0.97617  0.21603  0.37873  Biso   1.000  H
  C432     1.0000 0.05547  0.23463  0.37478  Biso   1.000  C
  C433     1.0000 0.11317  0.27453  0.37873  Biso   1.000  C
  H450     1.0000 0.14157  0.26703  0.37563  Biso   1.000  H
  C434     1.0000 0.13067  0.32283  0.38663  Biso   1.000  C
  H451     1.0000 0.16887  0.35153  0.38753  Biso   1.000  H
  C435     1.0000 0.04517  0.19133  0.36402  Biso   1.000  C
  Co21     1.0000 0.19495  0.62228  0.31994  Biso   1.000  Co
  Co22     1.0000 0.28710  0.76290  0.32236  Biso   1.000  Co
  O163     1.0000 0.02053  0.35426  0.26674  Biso   1.000  O
  O164     1.0000 0.11576  0.54565  0.31365  Biso   1.000  O
  O165     1.0000 0.19805  0.55562  0.30675  Biso   1.000  O
  O166     1.0000 0.21257  0.57258  0.33533  Biso   1.000  O
  O167     1.0000 0.27977  0.63333  0.34752  Biso   1.000  O
  O168     1.0000 0.27925  0.68348  0.31895  Biso   1.000  O
  O169     1.0000 0.29917  0.84643  0.32486  Biso   1.000  O
  O170     1.0000 0.01697  0.22663  0.26675  Biso   1.000  O
  O171     1.0000 0.98148  0.14806  0.33007  Biso   1.000  O
  O172     1.0000 0.99187  0.15400  0.36202  Biso   1.000  O
  O173     1.0000 0.07195  0.16763  0.32639  Biso   1.000  O
  O174     1.0000 0.08723  0.19286  0.35843  Biso   1.000  O
  N22      1.0000 0.25387  0.90313  0.32733  Biso   1.000  N
  C436     1.0000 0.26717  0.85763  0.33083  Biso   1.000  C
  H452     1.0000 0.24837  0.83513  0.33863  Biso   1.000  H
  C437     1.0000 0.21077  0.90943  0.33584  Biso   1.000  C
  H453     1.0000 0.20957  0.89543  0.34513  Biso   1.000  H
  H454     1.0000 0.17357  0.88783  0.33163  Biso   1.000  H
  H455     1.0000 0.22147  0.94933  0.33623  Biso   1.000  H
  C438     1.0000 0.26977  0.93133  0.31325  Biso   1.000  C
  H456     1.0000 0.28987  0.91623  0.30803  Biso   1.000  H
  H457     1.0000 0.29417  0.97203  0.31443  Biso   1.000  H
  H458     1.0000 0.23557  0.92373  0.30833  Biso   1.000  H
  O175     1.0000 0.11247  0.49643  0.39789  Biso   1.000  O
  O176     1.0000 0.11487  0.36773  0.40396  Biso   1.000  O
  C439     1.0000 0.14847  0.48803  0.40780  Biso   1.000  C
  H459     1.0000 0.18007  0.52143  0.41213  Biso   1.000  H
  H460     1.0000 0.16397  0.47023  0.40173  Biso   1.000  H
  C440     1.0000 0.07157  0.38453  0.40746  Biso   1.000  C
  H461     1.0000 0.03667  0.36033  0.41263  Biso   1.000  H
  H462     1.0000 0.06027  0.39053  0.39823  Biso   1.000  H
  N23      1.0000 0.93773  0.24077  0.66737  Biso   1.000  N
  C441     1.0000 0.95103  0.19347  0.66867  Biso   1.000  C
  H463     1.0000 0.94793  0.17527  0.67717  Biso   1.000  H
  C442     1.0000 0.90803  0.25227  0.67897  Biso   1.000  C
  H464     1.0000 0.89983  0.22507  0.68637  Biso   1.000  H
  H465     1.0000 0.87273  0.24867  0.67557  Biso   1.000  H
  H466     1.0000 0.93233  0.29057  0.68247  Biso   1.000  H
  C443     1.0000 0.95943  0.28007  0.65517  Biso   1.000  C
  H467     1.0000 0.95333  0.25807  0.64677  Biso   1.000  H
  H468     1.0000 0.99983  0.30647  0.65627  Biso   1.000  H
  H469     1.0000 0.93933  0.30117  0.65457  Biso   1.000  H
  C444     1.0000 0.81003  0.86367  0.63943  Biso   1.000  C
  C445     1.0000 0.78043  0.81767  0.62850  Biso   1.000  C
  C446     1.0000 0.71983  0.78907  0.62832  Biso   1.000  C
  H470     1.0000 0.69973  0.79877  0.63467  Biso   1.000  H
  C447     1.0000 0.69083  0.74557  0.61844  Biso   1.000  C
  H471     1.0000 0.65083  0.72607  0.61807  Biso   1.000  H
  C448     1.0000 0.72143  0.73167  0.60915  Biso   1.000  C
  C449     1.0000 0.78033  0.76047  0.60948  Biso   1.000  C
  H472     1.0000 0.80123  0.75207  0.60307  Biso   1.000  H
  C450     1.0000 0.80783  0.80257  0.61968  Biso   1.000  C
  H473     1.0000 0.84773  0.82087  0.62027  Biso   1.000  H
  C451     1.0000 0.71383  0.67007  0.59019  Biso   1.000  C
  H474     1.0000 0.74183  0.66277  0.59477  Biso   1.000  H
  H475     1.0000 0.73343  0.69987  0.58317  Biso   1.000  H
  C452     1.0000 0.69123  0.49707  0.65588  Biso   1.000  C
  C453     1.0000 0.68913  0.51517  0.64127  Biso   1.000  C
  C454     1.0000 0.73363  0.52927  0.63202  Biso   1.000  C
  H476     1.0000 0.76733  0.53077  0.63497  Biso   1.000  H
  C455     1.0000 0.72693  0.54117  0.61809  Biso   1.000  C
  H477     1.0000 0.75473  0.54577  0.61157  Biso   1.000  H
  C456     1.0000 0.68343  0.54607  0.61384  Biso   1.000  C
  C457     1.0000 0.63573  0.52967  0.62256  Biso   1.000  C
  H478     1.0000 0.60293  0.52967  0.61947  Biso   1.000  H
  C458     1.0000 0.64033  0.51347  0.63613  Biso   1.000  C
  H479     1.0000 0.60873  0.50087  0.64207  Biso   1.000  H
  C459     1.0000 0.63953  0.56967  0.59476  Biso   1.000  C
  H480     1.0000 0.62433  0.58307  0.60217  Biso   1.000  H
  H481     1.0000 0.60823  0.53437  0.59097  Biso   1.000  H
  C460     1.0000 0.89783  0.92307  0.67981  Biso   1.000  C
  C461     1.0000 0.86833  0.89847  0.69343  Biso   1.000  C
  C462     1.0000 0.81683  0.85347  0.69314  Biso   1.000  C
  H482     1.0000 0.79993  0.83797  0.68457  Biso   1.000  H
  C463     1.0000 0.78723  0.82827  0.70521  Biso   1.000  C
  H483     1.0000 0.74973  0.79767  0.70487  Biso   1.000  H
  C464     1.0000 0.81523  0.85017  0.71802  Biso   1.000  C
  C465     1.0000 0.86583  0.89507  0.71737  Biso   1.000  C
  H484     1.0000 0.88373  0.91177  0.72577  Biso   1.000  H
  C466     1.0000 0.89533  0.92037  0.70518  Biso   1.000  C
  H485     1.0000 0.93263  0.95147  0.70537  Biso   1.000  H
  O177     1.0000 0.76573  0.80167  0.72563  Biso   1.000  O
  O178     1.0000 0.79013  0.71767  0.73200  Biso   1.000  O
  C467     1.0000 0.76353  0.81337  0.74077  Biso   1.000  C
  H486     1.0000 0.75943  0.84187  0.74617  Biso   1.000  H
  H487     1.0000 0.80393  0.82687  0.73917  Biso   1.000  H
  C468     1.0000 0.75803  0.71607  0.74505  Biso   1.000  C
  H488     1.0000 0.79573  0.72737  0.74887  Biso   1.000  H
  H489     1.0000 0.72853  0.68347  0.75017  Biso   1.000  H
  C469     1.0000 0.76053  0.65747  0.72538  Biso   1.000  C
  C470     1.0000 0.69743  0.62097  0.72478  Biso   1.000  C
  H490     1.0000 0.67163  0.62637  0.73017  Biso   1.000  H
  C471     1.0000 0.68123  0.57397  0.71426  Biso   1.000  C
  H491     1.0000 0.64283  0.54937  0.71207  Biso   1.000  H
  C472     1.0000 0.72213  0.56797  0.70812  Biso   1.000  C
  C473     1.0000 0.77983  0.60787  0.71207  Biso   1.000  C
  H492     1.0000 0.80823  0.60037  0.70897  Biso   1.000  H
  C474     1.0000 0.79733  0.65617  0.71997  Biso   1.000  C
  H493     1.0000 0.83553  0.68487  0.72087  Biso   1.000  H
  C475     1.0000 0.71183  0.52467  0.69736  Biso   1.000  C
  Co23     1.0000 0.86161  0.95562  0.65327  Biso   1.000  Co
  Co24     1.0000 0.95376  0.09624  0.65570  Biso   1.000  Co
  O179     1.0000 0.68719  0.68760  0.60008  Biso   1.000  O
  O180     1.0000 0.78242  0.87899  0.64699  Biso   1.000  O
  O181     1.0000 0.86471  0.88896  0.64009  Biso   1.000  O
  O182     1.0000 0.87923  0.90592  0.66867  Biso   1.000  O
  O183     1.0000 0.94643  0.96667  0.68086  Biso   1.000  O
  O184     1.0000 0.94591  0.01682  0.65229  Biso   1.000  O
  O185     1.0000 0.96583  0.17977  0.65820  Biso   1.000  O
  O186     1.0000 0.68363  0.55997  0.60009  Biso   1.000  O
  O187     1.0000 0.64814  0.48140  0.66341  Biso   1.000  O
  O188     1.0000 0.65853  0.48734  0.69536  Biso   1.000  O
  O189     1.0000 0.73861  0.50097  0.65973  Biso   1.000  O
  O190     1.0000 0.75389  0.52620  0.69177  Biso   1.000  O
  N24      1.0000 0.92053  0.23647  0.66067  Biso   1.000  N
  C476     1.0000 0.93383  0.19097  0.66417  Biso   1.000  C
  H494     1.0000 0.91503  0.16847  0.67197  Biso   1.000  H
  C477     1.0000 0.87743  0.24277  0.66918  Biso   1.000  C
  H495     1.0000 0.87623  0.22877  0.67847  Biso   1.000  H
  H496     1.0000 0.84023  0.22117  0.66497  Biso   1.000  H
  H497     1.0000 0.88813  0.28267  0.66957  Biso   1.000  H
  C478     1.0000 0.93643  0.26467  0.64659  Biso   1.000  C
  H498     1.0000 0.95653  0.24957  0.64137  Biso   1.000  H
  H499     1.0000 0.96083  0.30537  0.64777  Biso   1.000  H
  H500     1.0000 0.90223  0.25707  0.64167  Biso   1.000  H
  O191     1.0000 0.77913  0.82977  0.73123  Biso   1.000  O
  O192     1.0000 0.78153  0.70107  0.73730  Biso   1.000  O
  C479     1.0000 0.81513  0.82137  0.74114  Biso   1.000  C
  H501     1.0000 0.84673  0.85477  0.74547  Biso   1.000  H
  H502     1.0000 0.83063  0.80357  0.73507  Biso   1.000  H
  C480     1.0000 0.73823  0.71787  0.74080  Biso   1.000  C
  H503     1.0000 0.70333  0.69367  0.74597  Biso   1.000  H
  H504     1.0000 0.72693  0.72387  0.73157  Biso   1.000  H
  N25      1.0000 0.96970  0.39560  0.00070  Biso   1.000  N
  C481     1.0000 0.90910  0.38230  0.00200  Biso   1.000  C
  H505     1.0000 0.89400  0.38540  0.01050  Biso   1.000  H
  C482     1.0000 0.01090  0.42530  0.01230  Biso   1.000  C
  H506     1.0000 0.99190  0.43350  0.01970  Biso   1.000  H
  H507     1.0000 0.04260  0.46060  0.00890  Biso   1.000  H
  H508     1.0000 0.02490  0.40100  0.01580  Biso   1.000  H
  C483     1.0000 0.98730  0.37390  0.98850  Biso   1.000  C
  H509     1.0000 0.97140  0.38000  0.98010  Biso   1.000  H
  H510     1.0000 0.97330  0.33350  0.98960  Biso   1.000  H
  H511     1.0000 0.02850  0.39400  0.98790  Biso   1.000  H
  C484     1.0000 0.72030  0.52330  0.97276  Biso   1.000  C
  C485     1.0000 0.70390  0.55290  0.96183  Biso   1.000  C
  C486     1.0000 0.73590  0.61350  0.96165  Biso   1.000  C
  H512     1.0000 0.76570  0.63360  0.96800  Biso   1.000  H
  C487     1.0000 0.72140  0.64250  0.95177  Biso   1.000  C
  H513     1.0000 0.74190  0.68250  0.95140  Biso   1.000  H
  C488     1.0000 0.67690  0.61190  0.94248  Biso   1.000  C
  C489     1.0000 0.64680  0.55300  0.94281  Biso   1.000  C
  H514     1.0000 0.61750  0.53210  0.93640  Biso   1.000  H
  C490     1.0000 0.66140  0.52550  0.95301  Biso   1.000  C
  H515     1.0000 0.63980  0.48560  0.95360  Biso   1.000  H
  C491     1.0000 0.62290  0.61950  0.92352  Biso   1.000  C
  H516     1.0000 0.58760  0.59150  0.92810  Biso   1.000  H
  H517     1.0000 0.63310  0.59990  0.91650  Biso   1.000  H
  C492     1.0000 0.47250  0.64210  0.98921  Biso   1.000  C
  C493     1.0000 0.49270  0.64420  0.97460  Biso   1.000  C
  C494     1.0000 0.46230  0.59970  0.96535  Biso   1.000  C
  H518     1.0000 0.43010  0.56600  0.96830  Biso   1.000  H
  C495     1.0000 0.48090  0.60640  0.95142  Biso   1.000  C
  H519     1.0000 0.45770  0.57860  0.94490  Biso   1.000  H
  C496     1.0000 0.52930  0.64990  0.94717  Biso   1.000  C
  C497     1.0000 0.56060  0.69760  0.95589  Biso   1.000  C
  H520     1.0000 0.59340  0.73040  0.95280  Biso   1.000  H
  C498     1.0000 0.53980  0.69300  0.96946  Biso   1.000  C
  H521     1.0000 0.55880  0.72460  0.97540  Biso   1.000  H
  C499     1.0000 0.59680  0.69380  0.92809  Biso   1.000  C
  H522     1.0000 0.62540  0.70900  0.93550  Biso   1.000  H
  H523     1.0000 0.59280  0.72510  0.92430  Biso   1.000  H
  C500     1.0000 0.69190  0.43550  0.01314  Biso   1.000  C
  C501     1.0000 0.69680  0.46500  0.02676  Biso   1.000  C
  C502     1.0000 0.70330  0.51650  0.02647  Biso   1.000  C
  H524     1.0000 0.70470  0.53340  0.01790  Biso   1.000  H
  C503     1.0000 0.70770  0.54610  0.03854  Biso   1.000  C
  H525     1.0000 0.71460  0.58360  0.03820  Biso   1.000  H
  C504     1.0000 0.70160  0.51810  0.05135  Biso   1.000  C
  C505     1.0000 0.69590  0.46750  0.05070  Biso   1.000  C
  H526     1.0000 0.69470  0.44960  0.05910  Biso   1.000  H
  C506     1.0000 0.69170  0.43800  0.03851  Biso   1.000  C
  H527     1.0000 0.68550  0.40070  0.03870  Biso   1.000  H
  O193     1.0000 0.70260  0.56760  0.05896  Biso   1.000  O
  O194     1.0000 0.59420  0.54320  0.06533  Biso   1.000  O
  C507     1.0000 0.71650  0.56980  0.07410  Biso   1.000  C
  H528     1.0000 0.74910  0.57390  0.07950  Biso   1.000  H
  H529     1.0000 0.68960  0.52940  0.07250  Biso   1.000  H
  C508     1.0000 0.62470  0.57530  0.07838  Biso   1.000  C
  H530     1.0000 0.59830  0.53760  0.08220  Biso   1.000  H
  H531     1.0000 0.62160  0.60480  0.08350  Biso   1.000  H
  C509     1.0000 0.56360  0.57280  0.05871  Biso   1.000  C
  C510     1.0000 0.59020  0.63590  0.05811  Biso   1.000  C
  H532     1.0000 0.62140  0.66170  0.06350  Biso   1.000  H
  C511     1.0000 0.55940  0.65210  0.04759  Biso   1.000  C
  H533     1.0000 0.57320  0.69050  0.04540  Biso   1.000  H
  C512     1.0000 0.51250  0.61120  0.04145  Biso   1.000  C
  C513     1.0000 0.49470  0.55350  0.04540  Biso   1.000  C
  H534     1.0000 0.45880  0.52510  0.04230  Biso   1.000  H
  C514     1.0000 0.52550  0.53600  0.05330  Biso   1.000  C
  H535     1.0000 0.51600  0.49780  0.05420  Biso   1.000  H
  C515     1.0000 0.47950  0.62150  0.03069  Biso   1.000  C
  Co25     1.0000 0.76067  0.47172  0.98661  Biso   1.000  Co
  Co26     1.0000 0.80914  0.37957  0.98903  Biso   1.000  Co
  O195     1.0000 0.66707  0.64614  0.93341  Biso   1.000  O
  O196     1.0000 0.76323  0.55091  0.98032  Biso   1.000  O
  O197     1.0000 0.69091  0.46862  0.97342  Biso   1.000  O
  O198     1.0000 0.69335  0.45410  0.00200  Biso   1.000  O
  O199     1.0000 0.68690  0.38690  0.01419  Biso   1.000  O
  O200     1.0000 0.73757  0.38742  0.98562  Biso   1.000  O
  O201     1.0000 0.88060  0.36750  0.99153  Biso   1.000  O
  O202     1.0000 0.54300  0.64970  0.93342  Biso   1.000  O
  O203     1.0000 0.49992  0.68519  0.99674  Biso   1.000  O
  O204     1.0000 0.49547  0.67480  0.02869  Biso   1.000  O
  O205     1.0000 0.42902  0.59472  0.99306  Biso   1.000  O
  O206     1.0000 0.43897  0.57944  0.02510  Biso   1.000  O
  N26      1.0000 0.98260  0.41280  0.99400  Biso   1.000  N
  C516     1.0000 0.92380  0.39950  0.99750  Biso   1.000  C
  H536     1.0000 0.92010  0.41830  0.00530  Biso   1.000  H
  C517     1.0000 0.03200  0.45590  0.00251  Biso   1.000  C
  H537     1.0000 0.01920  0.45710  0.01180  Biso   1.000  H
  H538     1.0000 0.04760  0.49310  0.99830  Biso   1.000  H
  H539     1.0000 0.06120  0.44520  0.00290  Biso   1.000  H
  C518     1.0000 0.99490  0.39690  0.97992  Biso   1.000  C
  H540     1.0000 0.95970  0.37680  0.97470  Biso   1.000  H
  H541     1.0000 0.01120  0.37250  0.98110  Biso   1.000  H
  H542     1.0000 0.02150  0.43110  0.97500  Biso   1.000  H
  O207     1.0000 0.71730  0.55420  0.06456  Biso   1.000  O
  O208     1.0000 0.58620  0.55180  0.07063  Biso   1.000  O
  C519     1.0000 0.67290  0.51820  0.07447  Biso   1.000  C
  H543     1.0000 0.67470  0.48660  0.07880  Biso   1.000  H
  H544     1.0000 0.63960  0.50270  0.06840  Biso   1.000  H
  C520     1.0000 0.64630  0.59510  0.07413  Biso   1.000  C
  H545     1.0000 0.65700  0.63000  0.07930  Biso   1.000  H
  H546     1.0000 0.66360  0.60640  0.06490  Biso   1.000  H
  N27      1.0000 0.63637  0.72893  0.33403  Biso   1.000  N
  C521     1.0000 0.57577  0.71563  0.33533  Biso   1.000  C
  H547     1.0000 0.56067  0.71873  0.34383  Biso   1.000  H
  C522     1.0000 0.67757  0.75863  0.34563  Biso   1.000  C
  H548     1.0000 0.65857  0.76683  0.35303  Biso   1.000  H
  H549     1.0000 0.70927  0.79393  0.34223  Biso   1.000  H
  H550     1.0000 0.69157  0.73433  0.34913  Biso   1.000  H
  C523     1.0000 0.65397  0.70723  0.32183  Biso   1.000  C
  H551     1.0000 0.63807  0.71333  0.31343  Biso   1.000  H
  H552     1.0000 0.63997  0.66683  0.32293  Biso   1.000  H
  H553     1.0000 0.69517  0.72733  0.32123  Biso   1.000  H
  C524     1.0000 0.38697  0.85663  0.30609  Biso   1.000  C
  C525     1.0000 0.37057  0.88623  0.29516  Biso   1.000  C
  C526     1.0000 0.40257  0.94683  0.29498  Biso   1.000  C
  H554     1.0000 0.43237  0.96693  0.30133  Biso   1.000  H
  C527     1.0000 0.38807  0.97583  0.28510  Biso   1.000  C
  H555     1.0000 0.40857  0.01583  0.28473  Biso   1.000  H
  C528     1.0000 0.34357  0.94523  0.27581  Biso   1.000  C
  C529     1.0000 0.31347  0.88633  0.27614  Biso   1.000  C
  H556     1.0000 0.28417  0.86543  0.26973  Biso   1.000  H
  C530     1.0000 0.32807  0.85883  0.28634  Biso   1.000  C
  H557     1.0000 0.30647  0.81893  0.28693  Biso   1.000  H
  C531     1.0000 0.28957  0.95283  0.25685  Biso   1.000  C
  H558     1.0000 0.25427  0.92483  0.26143  Biso   1.000  H
  H559     1.0000 0.29977  0.93323  0.24983  Biso   1.000  H
  C532     1.0000 0.13917  0.97543  0.32254  Biso   1.000  C
  C533     1.0000 0.15937  0.97753  0.30793  Biso   1.000  C
  C534     1.0000 0.12897  0.93303  0.29868  Biso   1.000  C
  H560     1.0000 0.09677  0.89933  0.30163  Biso   1.000  H
  C535     1.0000 0.14757  0.93973  0.28475  Biso   1.000  C
  H561     1.0000 0.12437  0.91193  0.27823  Biso   1.000  H
  C536     1.0000 0.19597  0.98323  0.28050  Biso   1.000  C
  C537     1.0000 0.22727  0.03093  0.28922  Biso   1.000  C
  H562     1.0000 0.26007  0.06373  0.28613  Biso   1.000  H
  C538     1.0000 0.20647  0.02633  0.30279  Biso   1.000  C
  H563     1.0000 0.22547  0.05793  0.30873  Biso   1.000  H
  C539     1.0000 0.26347  0.02713  0.26142  Biso   1.000  C
  H564     1.0000 0.29207  0.04233  0.26883  Biso   1.000  H
  H565     1.0000 0.25947  0.05843  0.25763  Biso   1.000  H
  C540     1.0000 0.35857  0.76883  0.34647  Biso   1.000  C
  C541     1.0000 0.36347  0.79833  0.36009  Biso   1.000  C
  C542     1.0000 0.36997  0.84983  0.35980  Biso   1.000  C
  H566     1.0000 0.37137  0.86673  0.35123  Biso   1.000  H
  C543     1.0000 0.37437  0.87943  0.37187  Biso   1.000  C
  H567     1.0000 0.38127  0.91693  0.37153  Biso   1.000  H
  C544     1.0000 0.36827  0.85143  0.38468  Biso   1.000  C
  C545     1.0000 0.36257  0.80083  0.38403  Biso   1.000  C
  H568     1.0000 0.36137  0.78293  0.39243  Biso   1.000  H
  C546     1.0000 0.35837  0.77133  0.37184  Biso   1.000  C
  H569     1.0000 0.35217  0.73403  0.37203  Biso   1.000  H
  O209     1.0000 0.36927  0.90093  0.39229  Biso   1.000  O
  O210     1.0000 0.26087  0.87653  0.39866  Biso   1.000  O
  C547     1.0000 0.38317  0.90313  0.40743  Biso   1.000  C
  H570     1.0000 0.41577  0.90723  0.41283  Biso   1.000  H
  H571     1.0000 0.35627  0.86273  0.40583  Biso   1.000  H
  C548     1.0000 0.29137  0.90863  0.41171  Biso   1.000  C
  H572     1.0000 0.26497  0.87093  0.41553  Biso   1.000  H
  H573     1.0000 0.28827  0.93813  0.41683  Biso   1.000  H
  C549     1.0000 0.23027  0.90613  0.39204  Biso   1.000  C
  C550     1.0000 0.25687  0.96923  0.39144  Biso   1.000  C
  H574     1.0000 0.28807  0.99503  0.39683  Biso   1.000  H
  C551     1.0000 0.22607  0.98543  0.38092  Biso   1.000  C
  H575     1.0000 0.23987  0.02383  0.37873  Biso   1.000  H
  C552     1.0000 0.17917  0.94453  0.37478  Biso   1.000  C
  C553     1.0000 0.16137  0.88683  0.37873  Biso   1.000  C
  H576     1.0000 0.12547  0.85843  0.37563  Biso   1.000  H
  C554     1.0000 0.19217  0.86933  0.38663  Biso   1.000  C
  H577     1.0000 0.18267  0.83113  0.38753  Biso   1.000  H
  C555     1.0000 0.14617  0.95483  0.36402  Biso   1.000  C
  Co27     1.0000 0.42734  0.80505  0.31994  Biso   1.000  Co
  Co28     1.0000 0.47581  0.71290  0.32236  Biso   1.000  Co
  O211     1.0000 0.33374  0.97947  0.26674  Biso   1.000  O
  O212     1.0000 0.42990  0.88424  0.31365  Biso   1.000  O
  O213     1.0000 0.35758  0.80195  0.30675  Biso   1.000  O
  O214     1.0000 0.36002  0.78743  0.33533  Biso   1.000  O
  O215     1.0000 0.35357  0.72023  0.34752  Biso   1.000  O
  O216     1.0000 0.40424  0.72075  0.31895  Biso   1.000  O
  O217     1.0000 0.54727  0.70083  0.32486  Biso   1.000  O
  O218     1.0000 0.20967  0.98303  0.26675  Biso   1.000  O
  O219     1.0000 0.16659  0.01852  0.33007  Biso   1.000  O
  O220     1.0000 0.16214  0.00813  0.36202  Biso   1.000  O
  O221     1.0000 0.09569  0.92805  0.32639  Biso   1.000  O
  O222     1.0000 0.10564  0.91277  0.35843  Biso   1.000  O
  N28      1.0000 0.64927  0.74613  0.32733  Biso   1.000  N
  C556     1.0000 0.59047  0.73283  0.33083  Biso   1.000  C
  H578     1.0000 0.58677  0.75163  0.33863  Biso   1.000  H
  C557     1.0000 0.69867  0.78923  0.33584  Biso   1.000  C
  H579     1.0000 0.68587  0.79043  0.34513  Biso   1.000  H
  H580     1.0000 0.71427  0.82643  0.33163  Biso   1.000  H
  H581     1.0000 0.72787  0.77853  0.33623  Biso   1.000  H
  C558     1.0000 0.66157  0.73023  0.31325  Biso   1.000  C
  H582     1.0000 0.62637  0.71013  0.30803  Biso   1.000  H
  H583     1.0000 0.67787  0.70583  0.31443  Biso   1.000  H
  H584     1.0000 0.68817  0.76443  0.30833  Biso   1.000  H
  O223     1.0000 0.38397  0.88753  0.39789  Biso   1.000  O
  O224     1.0000 0.25287  0.88513  0.40396  Biso   1.000  O
  C559     1.0000 0.33957  0.85153  0.40780  Biso   1.000  C
  H585     1.0000 0.34137  0.81993  0.41213  Biso   1.000  H
  H586     1.0000 0.30627  0.83603  0.40173  Biso   1.000  H
  C560     1.0000 0.31297  0.92843  0.40746  Biso   1.000  C
  H587     1.0000 0.32367  0.96333  0.41263  Biso   1.000  H
  H588     1.0000 0.33027  0.93973  0.39823  Biso   1.000  H
  N29      1.0000 0.30303  0.06227  0.66737  Biso   1.000  N
  C561     1.0000 0.24243  0.04897  0.66867  Biso   1.000  C
  H589     1.0000 0.22733  0.05207  0.67717  Biso   1.000  H
  C562     1.0000 0.34423  0.09197  0.67897  Biso   1.000  C
  H590     1.0000 0.32523  0.10017  0.68637  Biso   1.000  H
  H591     1.0000 0.37593  0.12727  0.67557  Biso   1.000  H
  H592     1.0000 0.35823  0.06767  0.68247  Biso   1.000  H
  C563     1.0000 0.32063  0.04057  0.65517  Biso   1.000  C
  H593     1.0000 0.30473  0.04667  0.64677  Biso   1.000  H
  H594     1.0000 0.30663  0.00017  0.65627  Biso   1.000  H
  H595     1.0000 0.36183  0.06067  0.65457  Biso   1.000  H
  C564     1.0000 0.05363  0.18997  0.63943  Biso   1.000  C
  C565     1.0000 0.03723  0.21957  0.62850  Biso   1.000  C
  C566     1.0000 0.06923  0.28017  0.62832  Biso   1.000  C
  H596     1.0000 0.09903  0.30027  0.63467  Biso   1.000  H
  C567     1.0000 0.05473  0.30917  0.61844  Biso   1.000  C
  H597     1.0000 0.07523  0.34917  0.61807  Biso   1.000  H
  C568     1.0000 0.01023  0.27857  0.60915  Biso   1.000  C
  C569     1.0000 0.98013  0.21967  0.60948  Biso   1.000  C
  H598     1.0000 0.95083  0.19877  0.60307  Biso   1.000  H
  C570     1.0000 0.99473  0.19217  0.61968  Biso   1.000  C
  H599     1.0000 0.97313  0.15227  0.62027  Biso   1.000  H
  C571     1.0000 0.95623  0.28617  0.59019  Biso   1.000  C
  H600     1.0000 0.92093  0.25817  0.59477  Biso   1.000  H
  H601     1.0000 0.96643  0.26657  0.58317  Biso   1.000  H
  C572     1.0000 0.80583  0.30877  0.65588  Biso   1.000  C
  C573     1.0000 0.82603  0.31087  0.64127  Biso   1.000  C
  C574     1.0000 0.79563  0.26637  0.63202  Biso   1.000  C
  H602     1.0000 0.76343  0.23267  0.63497  Biso   1.000  H
  C575     1.0000 0.81423  0.27307  0.61809  Biso   1.000  C
  H603     1.0000 0.79103  0.24527  0.61157  Biso   1.000  H
  C576     1.0000 0.86263  0.31657  0.61384  Biso   1.000  C
  C577     1.0000 0.89393  0.36427  0.62256  Biso   1.000  C
  H604     1.0000 0.92673  0.39707  0.61947  Biso   1.000  H
  C578     1.0000 0.87313  0.35967  0.63613  Biso   1.000  C
  H605     1.0000 0.89213  0.39127  0.64207  Biso   1.000  H
  C579     1.0000 0.93013  0.36047  0.59476  Biso   1.000  C
  H606     1.0000 0.95873  0.37567  0.60217  Biso   1.000  H
  H607     1.0000 0.92613  0.39177  0.59097  Biso   1.000  H
  C580     1.0000 0.02523  0.10217  0.67981  Biso   1.000  C
  C581     1.0000 0.03013  0.13167  0.69343  Biso   1.000  C
  C582     1.0000 0.03663  0.18317  0.69314  Biso   1.000  C
  H608     1.0000 0.03803  0.20007  0.68457  Biso   1.000  H
  C583     1.0000 0.04103  0.21277  0.70521  Biso   1.000  C
  H609     1.0000 0.04793  0.25027  0.70487  Biso   1.000  H
  C584     1.0000 0.03493  0.18477  0.71802  Biso   1.000  C
  C585     1.0000 0.02923  0.13417  0.71737  Biso   1.000  C
  H610     1.0000 0.02803  0.11627  0.72577  Biso   1.000  H
  C586     1.0000 0.02503  0.10467  0.70518  Biso   1.000  C
  H611     1.0000 0.01883  0.06737  0.70537  Biso   1.000  H
  O225     1.0000 0.03593  0.23427  0.72563  Biso   1.000  O
  O226     1.0000 0.92753  0.20987  0.73200  Biso   1.000  O
  C587     1.0000 0.04983  0.23647  0.74077  Biso   1.000  C
  H612     1.0000 0.08243  0.24057  0.74617  Biso   1.000  H
  H613     1.0000 0.02293  0.19607  0.73917  Biso   1.000  H
  C588     1.0000 0.95803  0.24197  0.74505  Biso   1.000  C
  H614     1.0000 0.93163  0.20427  0.74887  Biso   1.000  H
  H615     1.0000 0.95493  0.27147  0.75017  Biso   1.000  H
  C589     1.0000 0.89693  0.23947  0.72538  Biso   1.000  C
  C590     1.0000 0.92353  0.30257  0.72478  Biso   1.000  C
  H616     1.0000 0.95473  0.32837  0.73017  Biso   1.000  H
  C591     1.0000 0.89273  0.31877  0.71426  Biso   1.000  C
  H617     1.0000 0.90653  0.35717  0.71207  Biso   1.000  H
  C592     1.0000 0.84583  0.27787  0.70812  Biso   1.000  C
  C593     1.0000 0.82803  0.22017  0.71207  Biso   1.000  C
  H618     1.0000 0.79213  0.19177  0.70897  Biso   1.000  H
  C594     1.0000 0.85883  0.20267  0.71997  Biso   1.000  C
  H619     1.0000 0.84933  0.16447  0.72087  Biso   1.000  H
  C595     1.0000 0.81283  0.28817  0.69736  Biso   1.000  C
  Co29     1.0000 0.09400  0.13839  0.65327  Biso   1.000  Co
  Co30     1.0000 0.14247  0.04624  0.65570  Biso   1.000  Co
  O227     1.0000 0.00040  0.31281  0.60008  Biso   1.000  O
  O228     1.0000 0.09656  0.21758  0.64699  Biso   1.000  O
  O229     1.0000 0.02424  0.13529  0.64009  Biso   1.000  O
  O230     1.0000 0.02668  0.12077  0.66867  Biso   1.000  O
  O231     1.0000 0.02023  0.05357  0.68086  Biso   1.000  O
  O232     1.0000 0.07090  0.05409  0.65229  Biso   1.000  O
  O233     1.0000 0.21393  0.03417  0.65820  Biso   1.000  O
  O234     1.0000 0.87633  0.31637  0.60009  Biso   1.000  O
  O235     1.0000 0.83325  0.35186  0.66341  Biso   1.000  O
  O236     1.0000 0.82880  0.34147  0.69536  Biso   1.000  O
  O237     1.0000 0.76235  0.26139  0.65973  Biso   1.000  O
  O238     1.0000 0.77230  0.24611  0.69177  Biso   1.000  O
  N30      1.0000 0.31593  0.07947  0.66067  Biso   1.000  N
  C596     1.0000 0.25713  0.06617  0.66417  Biso   1.000  C
  H620     1.0000 0.25343  0.08497  0.67197  Biso   1.000  H
  C597     1.0000 0.36533  0.12257  0.66918  Biso   1.000  C
  H621     1.0000 0.35253  0.12377  0.67847  Biso   1.000  H
  H622     1.0000 0.38093  0.15977  0.66497  Biso   1.000  H
  H623     1.0000 0.39453  0.11187  0.66957  Biso   1.000  H
  C598     1.0000 0.32823  0.06357  0.64659  Biso   1.000  C
  H624     1.0000 0.29303  0.04347  0.64137  Biso   1.000  H
  H625     1.0000 0.34453  0.03917  0.64777  Biso   1.000  H
  H626     1.0000 0.35483  0.09777  0.64167  Biso   1.000  H
  O239     1.0000 0.05063  0.22087  0.73123  Biso   1.000  O
  O240     1.0000 0.91953  0.21847  0.73730  Biso   1.000  O
  C599     1.0000 0.00623  0.18487  0.74114  Biso   1.000  C
  H627     1.0000 0.00803  0.15327  0.74547  Biso   1.000  H
  H628     1.0000 0.97293  0.16937  0.73507  Biso   1.000  H
  C600     1.0000 0.97963  0.26177  0.74080  Biso   1.000  C
  H629     1.0000 0.99033  0.29667  0.74597  Biso   1.000  H
  H630     1.0000 0.99693  0.27307  0.73157  Biso   1.000  H
  N31      1.0000 0.42590  0.03030  0.00070  Biso   1.000  N
  C601     1.0000 0.47320  0.09090  0.00200  Biso   1.000  C
  H631     1.0000 0.49140  0.10600  0.01050  Biso   1.000  H
  C602     1.0000 0.41440  0.98910  0.01230  Biso   1.000  C
  H632     1.0000 0.44160  0.00810  0.01970  Biso   1.000  H
  H633     1.0000 0.41800  0.95740  0.00890  Biso   1.000  H
  H634     1.0000 0.37610  0.97510  0.01580  Biso   1.000  H
  C603     1.0000 0.38660  0.01270  0.98850  Biso   1.000  C
  H635     1.0000 0.40860  0.02860  0.98010  Biso   1.000  H
  H636     1.0000 0.36020  0.02670  0.98960  Biso   1.000  H
  H637     1.0000 0.36550  0.97150  0.98790  Biso   1.000  H
  C604     1.0000 0.80300  0.27970  0.97276  Biso   1.000  C
  C605     1.0000 0.84900  0.29610  0.96183  Biso   1.000  C
  C606     1.0000 0.87760  0.26410  0.96165  Biso   1.000  C
  H638     1.0000 0.86790  0.23430  0.96800  Biso   1.000  H
  C607     1.0000 0.92110  0.27860  0.95177  Biso   1.000  C
  H639     1.0000 0.94060  0.25810  0.95140  Biso   1.000  H
  C608     1.0000 0.93500  0.32310  0.94248  Biso   1.000  C
  C609     1.0000 0.90620  0.35320  0.94281  Biso   1.000  C
  H640     1.0000 0.91460  0.38250  0.93640  Biso   1.000  H
  C610     1.0000 0.86410  0.33860  0.95301  Biso   1.000  C
  H641     1.0000 0.84580  0.36020  0.95360  Biso   1.000  H
  C611     1.0000 0.99660  0.37710  0.92352  Biso   1.000  C
  H642     1.0000 0.00390  0.41240  0.92810  Biso   1.000  H
  H643     1.0000 0.96680  0.36690  0.91650  Biso   1.000  H
  C612     1.0000 0.16960  0.52750  0.98921  Biso   1.000  C
  C613     1.0000 0.15150  0.50730  0.97460  Biso   1.000  C
  C614     1.0000 0.13740  0.53770  0.96535  Biso   1.000  C
  H644     1.0000 0.13590  0.56990  0.96830  Biso   1.000  H
  C615     1.0000 0.12550  0.51910  0.95142  Biso   1.000  C
  H645     1.0000 0.12090  0.54230  0.94490  Biso   1.000  H
  C616     1.0000 0.12060  0.47070  0.94717  Biso   1.000  C
  C617     1.0000 0.13700  0.43940  0.95589  Biso   1.000  C
  H646     1.0000 0.13700  0.40660  0.95280  Biso   1.000  H
  C618     1.0000 0.15320  0.46020  0.96946  Biso   1.000  C
  H647     1.0000 0.16580  0.44120  0.97540  Biso   1.000  H
  C619     1.0000 0.09700  0.40320  0.92809  Biso   1.000  C
  H648     1.0000 0.08360  0.37460  0.93550  Biso   1.000  H
  H649     1.0000 0.13230  0.40720  0.92430  Biso   1.000  H
  C620     1.0000 0.74360  0.30810  0.01314  Biso   1.000  C
  C621     1.0000 0.76820  0.30320  0.02676  Biso   1.000  C
  C622     1.0000 0.81320  0.29670  0.02647  Biso   1.000  C
  H650     1.0000 0.82870  0.29530  0.01790  Biso   1.000  H
  C623     1.0000 0.83840  0.29230  0.03854  Biso   1.000  C
  H651     1.0000 0.86900  0.28540  0.03820  Biso   1.000  H
  C624     1.0000 0.81650  0.29840  0.05135  Biso   1.000  C
  C625     1.0000 0.77160  0.30410  0.05070  Biso   1.000  C
  H652     1.0000 0.75490  0.30530  0.05910  Biso   1.000  H
  C626     1.0000 0.74630  0.30830  0.03851  Biso   1.000  C
  H653     1.0000 0.71520  0.31450  0.03870  Biso   1.000  H
  O241     1.0000 0.86500  0.29740  0.05896  Biso   1.000  O
  O242     1.0000 0.94900  0.40580  0.06533  Biso   1.000  O
  C627     1.0000 0.85330  0.28350  0.07410  Biso   1.000  C
  H654     1.0000 0.82480  0.25090  0.07950  Biso   1.000  H
  H655     1.0000 0.83980  0.31040  0.07250  Biso   1.000  H
  C628     1.0000 0.95060  0.37530  0.07838  Biso   1.000  C
  H656     1.0000 0.93930  0.40170  0.08220  Biso   1.000  H
  H657     1.0000 0.98320  0.37840  0.08350  Biso   1.000  H
  C629     1.0000 0.00920  0.43640  0.05871  Biso   1.000  C
  C630     1.0000 0.04570  0.40980  0.05811  Biso   1.000  C
  H658     1.0000 0.04030  0.37860  0.06350  Biso   1.000  H
  C631     1.0000 0.09270  0.44060  0.04759  Biso   1.000  C
  H659     1.0000 0.11730  0.42680  0.04540  Biso   1.000  H
  C632     1.0000 0.09870  0.48750  0.04145  Biso   1.000  C
  C633     1.0000 0.05880  0.50530  0.04540  Biso   1.000  C
  H660     1.0000 0.06630  0.54120  0.04230  Biso   1.000  H
  C634     1.0000 0.01050  0.47450  0.05330  Biso   1.000  C
  H661     1.0000 0.98180  0.48400  0.05420  Biso   1.000  H
  C635     1.0000 0.14200  0.52050  0.03069  Biso   1.000  C
  Co31     1.0000 0.71105  0.23933  0.98661  Biso   1.000  Co
  Co32     1.0000 0.57043  0.19086  0.98903  Biso   1.000  Co
  O243     1.0000 0.97907  0.33293  0.93341  Biso   1.000  O
  O244     1.0000 0.78768  0.23677  0.98032  Biso   1.000  O
  O245     1.0000 0.77771  0.30909  0.97342  Biso   1.000  O
  O246     1.0000 0.76075  0.30665  0.00200  Biso   1.000  O
  O247     1.0000 0.70000  0.31310  0.01419  Biso   1.000  O
  O248     1.0000 0.64985  0.26243  0.98562  Biso   1.000  O
  O249     1.0000 0.48690  0.11940  0.99153  Biso   1.000  O
  O250     1.0000 0.10670  0.45700  0.93342  Biso   1.000  O
  O251     1.0000 0.18527  0.50008  0.99674  Biso   1.000  O
  O252     1.0000 0.17933  0.50453  0.02869  Biso   1.000  O
  O253     1.0000 0.16570  0.57098  0.99306  Biso   1.000  O
  O254     1.0000 0.14047  0.56103  0.02510  Biso   1.000  O
  N32      1.0000 0.43020  0.01740  0.99400  Biso   1.000  N
  C636     1.0000 0.47570  0.07620  0.99750  Biso   1.000  C
  H662     1.0000 0.49820  0.07990  0.00530  Biso   1.000  H
  C637     1.0000 0.42390  0.96800  0.00251  Biso   1.000  C
  H663     1.0000 0.43790  0.98080  0.01180  Biso   1.000  H
  H664     1.0000 0.44550  0.95240  0.99830  Biso   1.000  H
  H665     1.0000 0.38400  0.93880  0.00290  Biso   1.000  H
  C638     1.0000 0.40200  0.00510  0.97992  Biso   1.000  C
  H666     1.0000 0.41710  0.04030  0.97470  Biso   1.000  H
  H667     1.0000 0.36130  0.98880  0.98110  Biso   1.000  H
  H668     1.0000 0.40960  0.97850  0.97500  Biso   1.000  H
  O255     1.0000 0.83690  0.28270  0.06456  Biso   1.000  O
  O256     1.0000 0.96560  0.41380  0.07063  Biso   1.000  O
  C639     1.0000 0.84530  0.32710  0.07447  Biso   1.000  C
  H669     1.0000 0.81190  0.32530  0.07880  Biso   1.000  H
  H670     1.0000 0.86310  0.36040  0.06840  Biso   1.000  H
  C640     1.0000 0.94880  0.35370  0.07413  Biso   1.000  C
  H671     1.0000 0.97300  0.34300  0.07930  Biso   1.000  H
  H672     1.0000 0.94280  0.33640  0.06490  Biso   1.000  H
  N33      1.0000 0.09257  0.36363  0.33403  Biso   1.000  N
  C641     1.0000 0.13987  0.42423  0.33533  Biso   1.000  C
  H673     1.0000 0.15807  0.43933  0.34383  Biso   1.000  H
  C642     1.0000 0.08107  0.32243  0.34563  Biso   1.000  C
  H674     1.0000 0.10827  0.34143  0.35303  Biso   1.000  H
  H675     1.0000 0.08467  0.29073  0.34223  Biso   1.000  H
  H676     1.0000 0.04277  0.30843  0.34913  Biso   1.000  H
  C643     1.0000 0.05327  0.34603  0.32183  Biso   1.000  C
  H677     1.0000 0.07527  0.36193  0.31343  Biso   1.000  H
  H678     1.0000 0.02687  0.36003  0.32293  Biso   1.000  H
  H679     1.0000 0.03217  0.30483  0.32123  Biso   1.000  H
  C644     1.0000 0.46967  0.61303  0.30609  Biso   1.000  C
  C645     1.0000 0.51567  0.62943  0.29516  Biso   1.000  C
  C646     1.0000 0.54427  0.59743  0.29498  Biso   1.000  C
  H680     1.0000 0.53457  0.56763  0.30133  Biso   1.000  H
  C647     1.0000 0.58777  0.61193  0.28510  Biso   1.000  C
  H681     1.0000 0.60727  0.59143  0.28473  Biso   1.000  H
  C648     1.0000 0.60167  0.65643  0.27581  Biso   1.000  C
  C649     1.0000 0.57287  0.68653  0.27614  Biso   1.000  C
  H682     1.0000 0.58127  0.71583  0.26973  Biso   1.000  H
  C650     1.0000 0.53077  0.67193  0.28634  Biso   1.000  C
  H683     1.0000 0.51247  0.69353  0.28693  Biso   1.000  H
  C651     1.0000 0.66327  0.71043  0.25685  Biso   1.000  C
  H684     1.0000 0.67057  0.74573  0.26143  Biso   1.000  H
  H685     1.0000 0.63347  0.70023  0.24983  Biso   1.000  H
  C652     1.0000 0.83627  0.86083  0.32254  Biso   1.000  C
  C653     1.0000 0.81817  0.84063  0.30793  Biso   1.000  C
  C654     1.0000 0.80407  0.87103  0.29868  Biso   1.000  C
  H686     1.0000 0.80257  0.90323  0.30163  Biso   1.000  H
  C655     1.0000 0.79217  0.85243  0.28475  Biso   1.000  C
  H687     1.0000 0.78757  0.87563  0.27823  Biso   1.000  H
  C656     1.0000 0.78727  0.80403  0.28050  Biso   1.000  C
  C657     1.0000 0.80367  0.77273  0.28922  Biso   1.000  C
  H688     1.0000 0.80367  0.73993  0.28613  Biso   1.000  H
  C658     1.0000 0.81987  0.79353  0.30279  Biso   1.000  C
  H689     1.0000 0.83247  0.77453  0.30873  Biso   1.000  H
  C659     1.0000 0.76367  0.73653  0.26142  Biso   1.000  C
  H690     1.0000 0.75027  0.70793  0.26883  Biso   1.000  H
  H691     1.0000 0.79897  0.74053  0.25763  Biso   1.000  H
  C660     1.0000 0.41027  0.64143  0.34647  Biso   1.000  C
  C661     1.0000 0.43487  0.63653  0.36009  Biso   1.000  C
  C662     1.0000 0.47987  0.63003  0.35980  Biso   1.000  C
  H692     1.0000 0.49537  0.62863  0.35123  Biso   1.000  H
  C663     1.0000 0.50507  0.62563  0.37187  Biso   1.000  C
  H693     1.0000 0.53567  0.61873  0.37153  Biso   1.000  H
  C664     1.0000 0.48317  0.63173  0.38468  Biso   1.000  C
  C665     1.0000 0.43827  0.63743  0.38403  Biso   1.000  C
  H694     1.0000 0.42157  0.63863  0.39243  Biso   1.000  H
  C666     1.0000 0.41297  0.64163  0.37184  Biso   1.000  C
  H695     1.0000 0.38187  0.64783  0.37203  Biso   1.000  H
  O257     1.0000 0.53167  0.63073  0.39229  Biso   1.000  O
  O258     1.0000 0.61567  0.73913  0.39866  Biso   1.000  O
  C667     1.0000 0.51997  0.61683  0.40743  Biso   1.000  C
  H696     1.0000 0.49147  0.58423  0.41283  Biso   1.000  H
  H697     1.0000 0.50647  0.64373  0.40583  Biso   1.000  H
  C668     1.0000 0.61727  0.70863  0.41171  Biso   1.000  C
  H698     1.0000 0.60597  0.73503  0.41553  Biso   1.000  H
  H699     1.0000 0.64987  0.71173  0.41683  Biso   1.000  H
  C669     1.0000 0.67587  0.76973  0.39204  Biso   1.000  C
  C670     1.0000 0.71237  0.74313  0.39144  Biso   1.000  C
  H700     1.0000 0.70697  0.71193  0.39683  Biso   1.000  H
  C671     1.0000 0.75937  0.77393  0.38092  Biso   1.000  C
  H701     1.0000 0.78397  0.76013  0.37873  Biso   1.000  H
  C672     1.0000 0.76537  0.82083  0.37478  Biso   1.000  C
  C673     1.0000 0.72547  0.83863  0.37873  Biso   1.000  C
  H702     1.0000 0.73297  0.87453  0.37563  Biso   1.000  H
  C674     1.0000 0.67717  0.80783  0.38663  Biso   1.000  C
  H703     1.0000 0.64847  0.81733  0.38753  Biso   1.000  H
  C675     1.0000 0.80867  0.85383  0.36402  Biso   1.000  C
  Co33     1.0000 0.37772  0.57266  0.31994  Biso   1.000  Co
  Co34     1.0000 0.23710  0.52419  0.32236  Biso   1.000  Co
  O259     1.0000 0.64574  0.66626  0.26674  Biso   1.000  O
  O260     1.0000 0.45435  0.57010  0.31365  Biso   1.000  O
  O261     1.0000 0.44438  0.64242  0.30675  Biso   1.000  O
  O262     1.0000 0.42742  0.63998  0.33533  Biso   1.000  O
  O263     1.0000 0.36667  0.64643  0.34752  Biso   1.000  O
  O264     1.0000 0.31652  0.59576  0.31895  Biso   1.000  O
  O265     1.0000 0.15357  0.45273  0.32486  Biso   1.000  O
  O266     1.0000 0.77337  0.79033  0.26675  Biso   1.000  O
  O267     1.0000 0.85194  0.83341  0.33007  Biso   1.000  O
  O268     1.0000 0.84600  0.83786  0.36202  Biso   1.000  O
  O269     1.0000 0.83237  0.90431  0.32639  Biso   1.000  O
  O270     1.0000 0.80714  0.89436  0.35843  Biso   1.000  O
  N34      1.0000 0.09687  0.35073  0.32733  Biso   1.000  N
  C676     1.0000 0.14237  0.40953  0.33083  Biso   1.000  C
  H704     1.0000 0.16487  0.41323  0.33863  Biso   1.000  H
  C677     1.0000 0.09057  0.30133  0.33584  Biso   1.000  C
  H705     1.0000 0.10457  0.31413  0.34513  Biso   1.000  H
  H706     1.0000 0.11217  0.28573  0.33163  Biso   1.000  H
  H707     1.0000 0.05067  0.27213  0.33623  Biso   1.000  H
  C678     1.0000 0.06867  0.33843  0.31325  Biso   1.000  C
  H708     1.0000 0.08377  0.37363  0.30803  Biso   1.000  H
  H709     1.0000 0.02797  0.32213  0.31443  Biso   1.000  H
  H710     1.0000 0.07627  0.31183  0.30833  Biso   1.000  H
  O271     1.0000 0.50357  0.61603  0.39789  Biso   1.000  O
  O272     1.0000 0.63227  0.74713  0.40396  Biso   1.000  O
  C679     1.0000 0.51197  0.66043  0.40780  Biso   1.000  C
  H711     1.0000 0.47857  0.65863  0.41213  Biso   1.000  H
  H712     1.0000 0.52977  0.69373  0.40173  Biso   1.000  H
  C680     1.0000 0.61547  0.68703  0.40746  Biso   1.000  C
  H713     1.0000 0.63967  0.67633  0.41263  Biso   1.000  H
  H714     1.0000 0.60947  0.66973  0.39823  Biso   1.000  H
  N35      1.0000 0.75923  0.69697  0.66737  Biso   1.000  N
  C681     1.0000 0.80653  0.75757  0.66867  Biso   1.000  C
  H715     1.0000 0.82473  0.77267  0.67717  Biso   1.000  H
  C682     1.0000 0.74773  0.65577  0.67897  Biso   1.000  C
  H716     1.0000 0.77493  0.67477  0.68637  Biso   1.000  H
  H717     1.0000 0.75133  0.62407  0.67557  Biso   1.000  H
  H718     1.0000 0.70943  0.64177  0.68247  Biso   1.000  H
  C683     1.0000 0.71993  0.67937  0.65517  Biso   1.000  C
  H719     1.0000 0.74193  0.69527  0.64677  Biso   1.000  H
  H720     1.0000 0.69353  0.69337  0.65627  Biso   1.000  H
  H721     1.0000 0.69883  0.63817  0.65457  Biso   1.000  H
  C684     1.0000 0.13633  0.94637  0.63943  Biso   1.000  C
  C685     1.0000 0.18233  0.96277  0.62850  Biso   1.000  C
  C686     1.0000 0.21093  0.93077  0.62832  Biso   1.000  C
  H722     1.0000 0.20123  0.90097  0.63467  Biso   1.000  H
  C687     1.0000 0.25443  0.94527  0.61844  Biso   1.000  C
  H723     1.0000 0.27393  0.92477  0.61807  Biso   1.000  H
  C688     1.0000 0.26833  0.98977  0.60915  Biso   1.000  C
  C689     1.0000 0.23953  0.01987  0.60948  Biso   1.000  C
  H724     1.0000 0.24793  0.04917  0.60307  Biso   1.000  H
  C690     1.0000 0.19743  0.00527  0.61968  Biso   1.000  C
  H725     1.0000 0.17913  0.02687  0.62027  Biso   1.000  H
  C691     1.0000 0.32993  0.04377  0.59019  Biso   1.000  C
  H726     1.0000 0.33723  0.07907  0.59477  Biso   1.000  H
  H727     1.0000 0.30013  0.03357  0.58317  Biso   1.000  H
  C692     1.0000 0.50293  0.19417  0.65588  Biso   1.000  C
  C693     1.0000 0.48483  0.17397  0.64127  Biso   1.000  C
  C694     1.0000 0.47073  0.20437  0.63202  Biso   1.000  C
  H728     1.0000 0.46923  0.23657  0.63497  Biso   1.000  H
  C695     1.0000 0.45883  0.18577  0.61809  Biso   1.000  C
  H729     1.0000 0.45423  0.20897  0.61157  Biso   1.000  H
  C696     1.0000 0.45393  0.13737  0.61384  Biso   1.000  C
  C697     1.0000 0.47033  0.10607  0.62256  Biso   1.000  C
  H730     1.0000 0.47033  0.07327  0.61947  Biso   1.000  H
  C698     1.0000 0.48653  0.12687  0.63613  Biso   1.000  C
  H731     1.0000 0.49913  0.10787  0.64207  Biso   1.000  H
  C699     1.0000 0.43033  0.06987  0.59476  Biso   1.000  C
  H732     1.0000 0.41693  0.04127  0.60217  Biso   1.000  H
  H733     1.0000 0.46563  0.07387  0.59097  Biso   1.000  H
  C700     1.0000 0.07693  0.97477  0.67981  Biso   1.000  C
  C701     1.0000 0.10153  0.96987  0.69343  Biso   1.000  C
  C702     1.0000 0.14653  0.96337  0.69314  Biso   1.000  C
  H734     1.0000 0.16203  0.96197  0.68457  Biso   1.000  H
  C703     1.0000 0.17173  0.95897  0.70521  Biso   1.000  C
  H735     1.0000 0.20233  0.95207  0.70487  Biso   1.000  H
  C704     1.0000 0.14983  0.96507  0.71802  Biso   1.000  C
  C705     1.0000 0.10493  0.97077  0.71737  Biso   1.000  C
  H736     1.0000 0.08823  0.97197  0.72577  Biso   1.000  H
  C706     1.0000 0.07963  0.97497  0.70518  Biso   1.000  C
  H737     1.0000 0.04853  0.98117  0.70537  Biso   1.000  H
  O273     1.0000 0.19833  0.96407  0.72563  Biso   1.000  O
  O274     1.0000 0.28233  0.07247  0.73200  Biso   1.000  O
  C707     1.0000 0.18663  0.95017  0.74077  Biso   1.000  C
  H738     1.0000 0.15813  0.91757  0.74617  Biso   1.000  H
  H739     1.0000 0.17313  0.97707  0.73917  Biso   1.000  H
  C708     1.0000 0.28393  0.04197  0.74505  Biso   1.000  C
  H740     1.0000 0.27263  0.06837  0.74887  Biso   1.000  H
  H741     1.0000 0.31653  0.04507  0.75017  Biso   1.000  H
  C709     1.0000 0.34253  0.10307  0.72538  Biso   1.000  C
  C710     1.0000 0.37903  0.07647  0.72478  Biso   1.000  C
  H742     1.0000 0.37363  0.04527  0.73017  Biso   1.000  H
  C711     1.0000 0.42603  0.10727  0.71426  Biso   1.000  C
  H743     1.0000 0.45063  0.09347  0.71207  Biso   1.000  H
  C712     1.0000 0.43203  0.15417  0.70812  Biso   1.000  C
  C713     1.0000 0.39213  0.17197  0.71207  Biso   1.000  C
  H744     1.0000 0.39963  0.20787  0.70897  Biso   1.000  H
  C714     1.0000 0.34383  0.14117  0.71997  Biso   1.000  C
  H745     1.0000 0.31513  0.15067  0.72087  Biso   1.000  H
  C715     1.0000 0.47533  0.18717  0.69736  Biso   1.000  C
  Co35     1.0000 0.04438  0.90600  0.65327  Biso   1.000  Co
  Co36     1.0000 0.90376  0.85753  0.65570  Biso   1.000  Co
  O275     1.0000 0.31240  0.99960  0.60008  Biso   1.000  O
  O276     1.0000 0.12101  0.90344  0.64699  Biso   1.000  O
  O277     1.0000 0.11104  0.97576  0.64009  Biso   1.000  O
  O278     1.0000 0.09408  0.97332  0.66867  Biso   1.000  O
  O279     1.0000 0.03333  0.97977  0.68086  Biso   1.000  O
  O280     1.0000 0.98318  0.92910  0.65229  Biso   1.000  O
  O281     1.0000 0.82023  0.78607  0.65820  Biso   1.000  O
  O282     1.0000 0.44003  0.12367  0.60009  Biso   1.000  O
  O283     1.0000 0.51860  0.16675  0.66341  Biso   1.000  O
  O284     1.0000 0.51266  0.17120  0.69536  Biso   1.000  O
  O285     1.0000 0.49903  0.23765  0.65973  Biso   1.000  O
  O286     1.0000 0.47380  0.22770  0.69177  Biso   1.000  O
  N36      1.0000 0.76353  0.68407  0.66067  Biso   1.000  N
  C716     1.0000 0.80903  0.74287  0.66417  Biso   1.000  C
  H746     1.0000 0.83153  0.74657  0.67197  Biso   1.000  H
  C717     1.0000 0.75723  0.63467  0.66918  Biso   1.000  C
  H747     1.0000 0.77123  0.64747  0.67847  Biso   1.000  H
  H748     1.0000 0.77883  0.61907  0.66497  Biso   1.000  H
  H749     1.0000 0.71733  0.60547  0.66957  Biso   1.000  H
  C718     1.0000 0.73533  0.67177  0.64659  Biso   1.000  C
  H750     1.0000 0.75043  0.70697  0.64137  Biso   1.000  H
  H751     1.0000 0.69463  0.65547  0.64777  Biso   1.000  H
  H752     1.0000 0.74293  0.64517  0.64167  Biso   1.000  H
  O287     1.0000 0.17023  0.94937  0.73123  Biso   1.000  O
  O288     1.0000 0.29893  0.08047  0.73730  Biso   1.000  O
  C719     1.0000 0.17863  0.99377  0.74114  Biso   1.000  C
  H753     1.0000 0.14523  0.99197  0.74547  Biso   1.000  H
  H754     1.0000 0.19643  0.02707  0.73507  Biso   1.000  H
  C720     1.0000 0.28213  0.02037  0.74080  Biso   1.000  C
  H755     1.0000 0.30633  0.00967  0.74597  Biso   1.000  H
  H756     1.0000 0.27613  0.00307  0.73157  Biso   1.000  H
  N37      1.0000 0.42590  0.39560  0.50070  Biso   1.000  N
  C721     1.0000 0.47320  0.38230  0.50200  Biso   1.000  C
  H757     1.0000 0.49140  0.38540  0.51050  Biso   1.000  H
  C722     1.0000 0.41440  0.42530  0.51230  Biso   1.000  C
  H758     1.0000 0.44160  0.43350  0.51970  Biso   1.000  H
  H759     1.0000 0.41800  0.46060  0.50890  Biso   1.000  H
  H760     1.0000 0.37610  0.40100  0.51580  Biso   1.000  H
  C723     1.0000 0.38660  0.37390  0.48850  Biso   1.000  C
  H761     1.0000 0.40860  0.38000  0.48010  Biso   1.000  H
  H762     1.0000 0.36020  0.33350  0.48960  Biso   1.000  H
  H763     1.0000 0.36550  0.39400  0.48790  Biso   1.000  H
  C724     1.0000 0.80300  0.52330  0.47276  Biso   1.000  C
  C725     1.0000 0.84900  0.55290  0.46183  Biso   1.000  C
  C726     1.0000 0.87760  0.61350  0.46165  Biso   1.000  C
  H764     1.0000 0.86790  0.63360  0.46800  Biso   1.000  H
  C727     1.0000 0.92110  0.64250  0.45177  Biso   1.000  C
  H765     1.0000 0.94060  0.68250  0.45140  Biso   1.000  H
  C728     1.0000 0.93500  0.61190  0.44248  Biso   1.000  C
  C729     1.0000 0.90620  0.55300  0.44281  Biso   1.000  C
  H766     1.0000 0.91460  0.53210  0.43640  Biso   1.000  H
  C730     1.0000 0.86410  0.52550  0.45301  Biso   1.000  C
  H767     1.0000 0.84580  0.48560  0.45360  Biso   1.000  H
  C731     1.0000 0.99660  0.61950  0.42352  Biso   1.000  C
  H768     1.0000 0.00390  0.59150  0.42810  Biso   1.000  H
  H769     1.0000 0.96680  0.59990  0.41650  Biso   1.000  H
  C732     1.0000 0.16960  0.64210  0.48921  Biso   1.000  C
  C733     1.0000 0.15150  0.64420  0.47460  Biso   1.000  C
  C734     1.0000 0.13740  0.59970  0.46535  Biso   1.000  C
  H770     1.0000 0.13590  0.56600  0.46830  Biso   1.000  H
  C735     1.0000 0.12550  0.60640  0.45142  Biso   1.000  C
  H771     1.0000 0.12090  0.57860  0.44490  Biso   1.000  H
  C736     1.0000 0.12060  0.64990  0.44717  Biso   1.000  C
  C737     1.0000 0.13700  0.69760  0.45589  Biso   1.000  C
  H772     1.0000 0.13700  0.73040  0.45280  Biso   1.000  H
  C738     1.0000 0.15320  0.69300  0.46946  Biso   1.000  C
  H773     1.0000 0.16580  0.72460  0.47540  Biso   1.000  H
  C739     1.0000 0.09700  0.69380  0.42809  Biso   1.000  C
  H774     1.0000 0.08360  0.70900  0.43550  Biso   1.000  H
  H775     1.0000 0.13230  0.72510  0.42430  Biso   1.000  H
  C740     1.0000 0.74360  0.43550  0.51314  Biso   1.000  C
  C741     1.0000 0.76820  0.46500  0.52676  Biso   1.000  C
  C742     1.0000 0.81320  0.51650  0.52647  Biso   1.000  C
  H776     1.0000 0.82870  0.53340  0.51790  Biso   1.000  H
  C743     1.0000 0.83840  0.54610  0.53854  Biso   1.000  C
  H777     1.0000 0.86900  0.58360  0.53820  Biso   1.000  H
  C744     1.0000 0.81650  0.51810  0.55135  Biso   1.000  C
  C745     1.0000 0.77160  0.46750  0.55070  Biso   1.000  C
  H778     1.0000 0.75490  0.44960  0.55910  Biso   1.000  H
  C746     1.0000 0.74630  0.43800  0.53851  Biso   1.000  C
  H779     1.0000 0.71520  0.40070  0.53870  Biso   1.000  H
  O289     1.0000 0.86500  0.56760  0.55896  Biso   1.000  O
  O290     1.0000 0.94900  0.54320  0.56533  Biso   1.000  O
  C747     1.0000 0.85330  0.56980  0.57410  Biso   1.000  C
  H780     1.0000 0.82480  0.57390  0.57950  Biso   1.000  H
  H781     1.0000 0.83980  0.52940  0.57250  Biso   1.000  H
  C748     1.0000 0.95060  0.57530  0.57838  Biso   1.000  C
  H782     1.0000 0.93930  0.53760  0.58220  Biso   1.000  H
  H783     1.0000 0.98320  0.60480  0.58350  Biso   1.000  H
  C749     1.0000 0.00920  0.57280  0.55871  Biso   1.000  C
  C750     1.0000 0.04570  0.63590  0.55811  Biso   1.000  C
  H784     1.0000 0.04030  0.66170  0.56350  Biso   1.000  H
  C751     1.0000 0.09270  0.65210  0.54759  Biso   1.000  C
  H785     1.0000 0.11730  0.69050  0.54540  Biso   1.000  H
  C752     1.0000 0.09870  0.61120  0.54145  Biso   1.000  C
  C753     1.0000 0.05880  0.55350  0.54540  Biso   1.000  C
  H786     1.0000 0.06630  0.52510  0.54230  Biso   1.000  H
  C754     1.0000 0.01050  0.53600  0.55330  Biso   1.000  C
  H787     1.0000 0.98180  0.49780  0.55420  Biso   1.000  H
  C755     1.0000 0.14200  0.62150  0.53069  Biso   1.000  C
  Co37     1.0000 0.71105  0.47172  0.48661  Biso   1.000  Co
  Co38     1.0000 0.57043  0.37957  0.48903  Biso   1.000  Co
  O291     1.0000 0.97907  0.64614  0.43341  Biso   1.000  O
  O292     1.0000 0.78768  0.55091  0.48032  Biso   1.000  O
  O293     1.0000 0.77771  0.46862  0.47342  Biso   1.000  O
  O294     1.0000 0.76075  0.45410  0.50200  Biso   1.000  O
  O295     1.0000 0.70000  0.38690  0.51419  Biso   1.000  O
  O296     1.0000 0.64985  0.38742  0.48562  Biso   1.000  O
  O297     1.0000 0.48690  0.36750  0.49153  Biso   1.000  O
  O298     1.0000 0.10670  0.64970  0.43342  Biso   1.000  O
  O299     1.0000 0.18527  0.68519  0.49674  Biso   1.000  O
  O300     1.0000 0.17933  0.67480  0.52869  Biso   1.000  O
  O301     1.0000 0.16570  0.59472  0.49306  Biso   1.000  O
  O302     1.0000 0.14047  0.57944  0.52510  Biso   1.000  O
  N38      1.0000 0.43020  0.41280  0.49400  Biso   1.000  N
  C756     1.0000 0.47570  0.39950  0.49750  Biso   1.000  C
  H788     1.0000 0.49820  0.41830  0.50530  Biso   1.000  H
  C757     1.0000 0.42390  0.45590  0.50251  Biso   1.000  C
  H789     1.0000 0.43790  0.45710  0.51180  Biso   1.000  H
  H790     1.0000 0.44550  0.49310  0.49830  Biso   1.000  H
  H791     1.0000 0.38400  0.44520  0.50290  Biso   1.000  H
  C758     1.0000 0.40200  0.39690  0.47992  Biso   1.000  C
  H792     1.0000 0.41710  0.37680  0.47470  Biso   1.000  H
  H793     1.0000 0.36130  0.37250  0.48110  Biso   1.000  H
  H794     1.0000 0.40960  0.43110  0.47500  Biso   1.000  H
  O303     1.0000 0.83690  0.55420  0.56456  Biso   1.000  O
  O304     1.0000 0.96560  0.55180  0.57063  Biso   1.000  O
  C759     1.0000 0.84530  0.51820  0.57447  Biso   1.000  C
  H795     1.0000 0.81190  0.48660  0.57880  Biso   1.000  H
  H796     1.0000 0.86310  0.50270  0.56840  Biso   1.000  H
  C760     1.0000 0.94880  0.59510  0.57413  Biso   1.000  C
  H797     1.0000 0.97300  0.63000  0.57930  Biso   1.000  H
  H798     1.0000 0.94280  0.60640  0.56490  Biso   1.000  H
  N39      1.0000 0.09257  0.72893  0.83403  Biso   1.000  N
  C761     1.0000 0.13987  0.71563  0.83533  Biso   1.000  C
  H799     1.0000 0.15807  0.71873  0.84383  Biso   1.000  H
  C762     1.0000 0.08107  0.75863  0.84563  Biso   1.000  C
  H800     1.0000 0.10827  0.76683  0.85303  Biso   1.000  H
  H801     1.0000 0.08467  0.79393  0.84223  Biso   1.000  H
  H802     1.0000 0.04277  0.73433  0.84913  Biso   1.000  H
  C763     1.0000 0.05327  0.70723  0.82183  Biso   1.000  C
  H803     1.0000 0.07527  0.71333  0.81343  Biso   1.000  H
  H804     1.0000 0.02687  0.66683  0.82293  Biso   1.000  H
  H805     1.0000 0.03217  0.72733  0.82123  Biso   1.000  H
  C764     1.0000 0.46967  0.85663  0.80609  Biso   1.000  C
  C765     1.0000 0.51567  0.88623  0.79516  Biso   1.000  C
  C766     1.0000 0.54427  0.94683  0.79498  Biso   1.000  C
  H806     1.0000 0.53457  0.96693  0.80133  Biso   1.000  H
  C767     1.0000 0.58777  0.97583  0.78510  Biso   1.000  C
  H807     1.0000 0.60727  0.01583  0.78473  Biso   1.000  H
  C768     1.0000 0.60167  0.94523  0.77581  Biso   1.000  C
  C769     1.0000 0.57287  0.88633  0.77614  Biso   1.000  C
  H808     1.0000 0.58127  0.86543  0.76973  Biso   1.000  H
  C770     1.0000 0.53077  0.85883  0.78634  Biso   1.000  C
  H809     1.0000 0.51247  0.81893  0.78693  Biso   1.000  H
  C771     1.0000 0.66327  0.95283  0.75685  Biso   1.000  C
  H810     1.0000 0.67057  0.92483  0.76143  Biso   1.000  H
  H811     1.0000 0.63347  0.93323  0.74983  Biso   1.000  H
  C772     1.0000 0.83627  0.97543  0.82254  Biso   1.000  C
  C773     1.0000 0.81817  0.97753  0.80793  Biso   1.000  C
  C774     1.0000 0.80407  0.93303  0.79868  Biso   1.000  C
  H812     1.0000 0.80257  0.89933  0.80163  Biso   1.000  H
  C775     1.0000 0.79217  0.93973  0.78475  Biso   1.000  C
  H813     1.0000 0.78757  0.91193  0.77823  Biso   1.000  H
  C776     1.0000 0.78727  0.98323  0.78050  Biso   1.000  C
  C777     1.0000 0.80367  0.03093  0.78922  Biso   1.000  C
  H814     1.0000 0.80367  0.06373  0.78613  Biso   1.000  H
  C778     1.0000 0.81987  0.02633  0.80279  Biso   1.000  C
  H815     1.0000 0.83247  0.05793  0.80873  Biso   1.000  H
  C779     1.0000 0.76367  0.02713  0.76142  Biso   1.000  C
  H816     1.0000 0.75027  0.04233  0.76883  Biso   1.000  H
  H817     1.0000 0.79897  0.05843  0.75763  Biso   1.000  H
  C780     1.0000 0.41027  0.76883  0.84647  Biso   1.000  C
  C781     1.0000 0.43487  0.79833  0.86009  Biso   1.000  C
  C782     1.0000 0.47987  0.84983  0.85980  Biso   1.000  C
  H818     1.0000 0.49537  0.86673  0.85123  Biso   1.000  H
  C783     1.0000 0.50507  0.87943  0.87187  Biso   1.000  C
  H819     1.0000 0.53567  0.91693  0.87153  Biso   1.000  H
  C784     1.0000 0.48317  0.85143  0.88468  Biso   1.000  C
  C785     1.0000 0.43827  0.80083  0.88403  Biso   1.000  C
  H820     1.0000 0.42157  0.78293  0.89243  Biso   1.000  H
  C786     1.0000 0.41297  0.77133  0.87184  Biso   1.000  C
  H821     1.0000 0.38187  0.73403  0.87203  Biso   1.000  H
  O305     1.0000 0.53167  0.90093  0.89229  Biso   1.000  O
  O306     1.0000 0.61567  0.87653  0.89866  Biso   1.000  O
  C787     1.0000 0.51997  0.90313  0.90743  Biso   1.000  C
  H822     1.0000 0.49147  0.90723  0.91283  Biso   1.000  H
  H823     1.0000 0.50647  0.86273  0.90583  Biso   1.000  H
  C788     1.0000 0.61727  0.90863  0.91171  Biso   1.000  C
  H824     1.0000 0.60597  0.87093  0.91553  Biso   1.000  H
  H825     1.0000 0.64987  0.93813  0.91683  Biso   1.000  H
  C789     1.0000 0.67587  0.90613  0.89204  Biso   1.000  C
  C790     1.0000 0.71237  0.96923  0.89144  Biso   1.000  C
  H826     1.0000 0.70697  0.99503  0.89683  Biso   1.000  H
  C791     1.0000 0.75937  0.98543  0.88092  Biso   1.000  C
  H827     1.0000 0.78397  0.02383  0.87873  Biso   1.000  H
  C792     1.0000 0.76537  0.94453  0.87478  Biso   1.000  C
  C793     1.0000 0.72547  0.88683  0.87873  Biso   1.000  C
  H828     1.0000 0.73297  0.85843  0.87563  Biso   1.000  H
  C794     1.0000 0.67717  0.86933  0.88663  Biso   1.000  C
  H829     1.0000 0.64847  0.83113  0.88753  Biso   1.000  H
  C795     1.0000 0.80867  0.95483  0.86402  Biso   1.000  C
  Co39     1.0000 0.37772  0.80505  0.81994  Biso   1.000  Co
  Co40     1.0000 0.23710  0.71290  0.82236  Biso   1.000  Co
  O307     1.0000 0.64574  0.97947  0.76674  Biso   1.000  O
  O308     1.0000 0.45435  0.88424  0.81365  Biso   1.000  O
  O309     1.0000 0.44438  0.80195  0.80675  Biso   1.000  O
  O310     1.0000 0.42742  0.78743  0.83533  Biso   1.000  O
  O311     1.0000 0.36667  0.72023  0.84752  Biso   1.000  O
  O312     1.0000 0.31652  0.72075  0.81895  Biso   1.000  O
  O313     1.0000 0.15357  0.70083  0.82486  Biso   1.000  O
  O314     1.0000 0.77337  0.98303  0.76675  Biso   1.000  O
  O315     1.0000 0.85194  0.01852  0.83007  Biso   1.000  O
  O316     1.0000 0.84600  0.00813  0.86202  Biso   1.000  O
  O317     1.0000 0.83237  0.92805  0.82639  Biso   1.000  O
  O318     1.0000 0.80714  0.91277  0.85843  Biso   1.000  O
  N40      1.0000 0.09687  0.74613  0.82733  Biso   1.000  N
  C796     1.0000 0.14237  0.73283  0.83083  Biso   1.000  C
  H830     1.0000 0.16487  0.75163  0.83863  Biso   1.000  H
  C797     1.0000 0.09057  0.78923  0.83584  Biso   1.000  C
  H831     1.0000 0.10457  0.79043  0.84513  Biso   1.000  H
  H832     1.0000 0.11217  0.82643  0.83163  Biso   1.000  H
  H833     1.0000 0.05067  0.77853  0.83623  Biso   1.000  H
  C798     1.0000 0.06867  0.73023  0.81325  Biso   1.000  C
  H834     1.0000 0.08377  0.71013  0.80803  Biso   1.000  H
  H835     1.0000 0.02797  0.70583  0.81443  Biso   1.000  H
  H836     1.0000 0.07627  0.76443  0.80833  Biso   1.000  H
  O319     1.0000 0.50357  0.88753  0.89789  Biso   1.000  O
  O320     1.0000 0.63227  0.88513  0.90396  Biso   1.000  O
  C799     1.0000 0.51197  0.85153  0.90780  Biso   1.000  C
  H837     1.0000 0.47857  0.81993  0.91213  Biso   1.000  H
  H838     1.0000 0.52977  0.83603  0.90173  Biso   1.000  H
  C800     1.0000 0.61547  0.92843  0.90746  Biso   1.000  C
  H839     1.0000 0.63967  0.96333  0.91263  Biso   1.000  H
  H840     1.0000 0.60947  0.93973  0.89823  Biso   1.000  H
  N41      1.0000 0.75923  0.06227  0.16737  Biso   1.000  N
  C801     1.0000 0.80653  0.04897  0.16867  Biso   1.000  C
  H841     1.0000 0.82473  0.05207  0.17717  Biso   1.000  H
  C802     1.0000 0.74773  0.09197  0.17897  Biso   1.000  C
  H842     1.0000 0.77493  0.10017  0.18637  Biso   1.000  H
  H843     1.0000 0.75133  0.12727  0.17557  Biso   1.000  H
  H844     1.0000 0.70943  0.06767  0.18247  Biso   1.000  H
  C803     1.0000 0.71993  0.04057  0.15517  Biso   1.000  C
  H845     1.0000 0.74193  0.04667  0.14677  Biso   1.000  H
  H846     1.0000 0.69353  0.00017  0.15627  Biso   1.000  H
  H847     1.0000 0.69883  0.06067  0.15457  Biso   1.000  H
  C804     1.0000 0.13633  0.18997  0.13943  Biso   1.000  C
  C805     1.0000 0.18233  0.21957  0.12850  Biso   1.000  C
  C806     1.0000 0.21093  0.28017  0.12832  Biso   1.000  C
  H848     1.0000 0.20123  0.30027  0.13467  Biso   1.000  H
  C807     1.0000 0.25443  0.30917  0.11844  Biso   1.000  C
  H849     1.0000 0.27393  0.34917  0.11807  Biso   1.000  H
  C808     1.0000 0.26833  0.27857  0.10915  Biso   1.000  C
  C809     1.0000 0.23953  0.21967  0.10948  Biso   1.000  C
  H850     1.0000 0.24793  0.19877  0.10307  Biso   1.000  H
  C810     1.0000 0.19743  0.19217  0.11968  Biso   1.000  C
  H851     1.0000 0.17913  0.15227  0.12027  Biso   1.000  H
  C811     1.0000 0.32993  0.28617  0.09019  Biso   1.000  C
  H852     1.0000 0.33723  0.25817  0.09477  Biso   1.000  H
  H853     1.0000 0.30013  0.26657  0.08317  Biso   1.000  H
  C812     1.0000 0.50293  0.30877  0.15588  Biso   1.000  C
  C813     1.0000 0.48483  0.31087  0.14127  Biso   1.000  C
  C814     1.0000 0.47073  0.26637  0.13202  Biso   1.000  C
  H854     1.0000 0.46923  0.23267  0.13497  Biso   1.000  H
  C815     1.0000 0.45883  0.27307  0.11809  Biso   1.000  C
  H855     1.0000 0.45423  0.24527  0.11157  Biso   1.000  H
  C816     1.0000 0.45393  0.31657  0.11384  Biso   1.000  C
  C817     1.0000 0.47033  0.36427  0.12256  Biso   1.000  C
  H856     1.0000 0.47033  0.39707  0.11947  Biso   1.000  H
  C818     1.0000 0.48653  0.35967  0.13613  Biso   1.000  C
  H857     1.0000 0.49913  0.39127  0.14207  Biso   1.000  H
  C819     1.0000 0.43033  0.36047  0.09476  Biso   1.000  C
  H858     1.0000 0.41693  0.37567  0.10217  Biso   1.000  H
  H859     1.0000 0.46563  0.39177  0.09097  Biso   1.000  H
  C820     1.0000 0.07693  0.10217  0.17981  Biso   1.000  C
  C821     1.0000 0.10153  0.13167  0.19343  Biso   1.000  C
  C822     1.0000 0.14653  0.18317  0.19314  Biso   1.000  C
  H860     1.0000 0.16203  0.20007  0.18457  Biso   1.000  H
  C823     1.0000 0.17173  0.21277  0.20521  Biso   1.000  C
  H861     1.0000 0.20233  0.25027  0.20487  Biso   1.000  H
  C824     1.0000 0.14983  0.18477  0.21802  Biso   1.000  C
  C825     1.0000 0.10493  0.13417  0.21737  Biso   1.000  C
  H862     1.0000 0.08823  0.11627  0.22577  Biso   1.000  H
  C826     1.0000 0.07963  0.10467  0.20518  Biso   1.000  C
  H863     1.0000 0.04853  0.06737  0.20537  Biso   1.000  H
  O321     1.0000 0.19833  0.23427  0.22563  Biso   1.000  O
  O322     1.0000 0.28233  0.20987  0.23200  Biso   1.000  O
  C827     1.0000 0.18663  0.23647  0.24077  Biso   1.000  C
  H864     1.0000 0.15813  0.24057  0.24617  Biso   1.000  H
  H865     1.0000 0.17313  0.19607  0.23917  Biso   1.000  H
  C828     1.0000 0.28393  0.24197  0.24505  Biso   1.000  C
  H866     1.0000 0.27263  0.20427  0.24887  Biso   1.000  H
  H867     1.0000 0.31653  0.27147  0.25017  Biso   1.000  H
  C829     1.0000 0.34253  0.23947  0.22538  Biso   1.000  C
  C830     1.0000 0.37903  0.30257  0.22478  Biso   1.000  C
  H868     1.0000 0.37363  0.32837  0.23017  Biso   1.000  H
  C831     1.0000 0.42603  0.31877  0.21426  Biso   1.000  C
  H869     1.0000 0.45063  0.35717  0.21207  Biso   1.000  H
  C832     1.0000 0.43203  0.27787  0.20812  Biso   1.000  C
  C833     1.0000 0.39213  0.22017  0.21207  Biso   1.000  C
  H870     1.0000 0.39963  0.19177  0.20897  Biso   1.000  H
  C834     1.0000 0.34383  0.20267  0.21997  Biso   1.000  C
  H871     1.0000 0.31513  0.16447  0.22087  Biso   1.000  H
  C835     1.0000 0.47533  0.28817  0.19736  Biso   1.000  C
  Co41     1.0000 0.04438  0.13839  0.15327  Biso   1.000  Co
  Co42     1.0000 0.90376  0.04624  0.15570  Biso   1.000  Co
  O323     1.0000 0.31240  0.31281  0.10008  Biso   1.000  O
  O324     1.0000 0.12101  0.21758  0.14699  Biso   1.000  O
  O325     1.0000 0.11104  0.13529  0.14009  Biso   1.000  O
  O326     1.0000 0.09408  0.12077  0.16867  Biso   1.000  O
  O327     1.0000 0.03333  0.05357  0.18086  Biso   1.000  O
  O328     1.0000 0.98318  0.05409  0.15229  Biso   1.000  O
  O329     1.0000 0.82023  0.03417  0.15820  Biso   1.000  O
  O330     1.0000 0.44003  0.31637  0.10009  Biso   1.000  O
  O331     1.0000 0.51860  0.35186  0.16341  Biso   1.000  O
  O332     1.0000 0.51266  0.34147  0.19536  Biso   1.000  O
  O333     1.0000 0.49903  0.26139  0.15973  Biso   1.000  O
  O334     1.0000 0.47380  0.24611  0.19177  Biso   1.000  O
  N42      1.0000 0.76353  0.07947  0.16067  Biso   1.000  N
  C836     1.0000 0.80903  0.06617  0.16417  Biso   1.000  C
  H872     1.0000 0.83153  0.08497  0.17197  Biso   1.000  H
  C837     1.0000 0.75723  0.12257  0.16918  Biso   1.000  C
  H873     1.0000 0.77123  0.12377  0.17847  Biso   1.000  H
  H874     1.0000 0.77883  0.15977  0.16497  Biso   1.000  H
  H875     1.0000 0.71733  0.11187  0.16957  Biso   1.000  H
  C838     1.0000 0.73533  0.06357  0.14659  Biso   1.000  C
  H876     1.0000 0.75043  0.04347  0.14137  Biso   1.000  H
  H877     1.0000 0.69463  0.03917  0.14777  Biso   1.000  H
  H878     1.0000 0.74293  0.09777  0.14167  Biso   1.000  H
  O335     1.0000 0.17023  0.22087  0.23123  Biso   1.000  O
  O336     1.0000 0.29893  0.21847  0.23730  Biso   1.000  O
  C839     1.0000 0.17863  0.18487  0.24114  Biso   1.000  C
  H879     1.0000 0.14523  0.15327  0.24547  Biso   1.000  H
  H880     1.0000 0.19643  0.16937  0.23507  Biso   1.000  H
  C840     1.0000 0.28213  0.26177  0.24080  Biso   1.000  C
  H881     1.0000 0.30633  0.29667  0.24597  Biso   1.000  H
  H882     1.0000 0.27613  0.27307  0.23157  Biso   1.000  H
  N43      1.0000 0.60440  0.03030  0.50070  Biso   1.000  N
  C841     1.0000 0.61770  0.09090  0.50200  Biso   1.000  C
  H883     1.0000 0.61460  0.10600  0.51050  Biso   1.000  H
  C842     1.0000 0.57470  0.98910  0.51230  Biso   1.000  C
  H884     1.0000 0.56650  0.00810  0.51970  Biso   1.000  H
  H885     1.0000 0.53940  0.95740  0.50890  Biso   1.000  H
  H886     1.0000 0.59900  0.97510  0.51580  Biso   1.000  H
  C843     1.0000 0.62610  0.01270  0.48850  Biso   1.000  C
  H887     1.0000 0.62000  0.02860  0.48010  Biso   1.000  H
  H888     1.0000 0.66650  0.02670  0.48960  Biso   1.000  H
  H889     1.0000 0.60600  0.97150  0.48790  Biso   1.000  H
  C844     1.0000 0.47670  0.27970  0.47276  Biso   1.000  C
  C845     1.0000 0.44710  0.29610  0.46183  Biso   1.000  C
  C846     1.0000 0.38650  0.26410  0.46165  Biso   1.000  C
  H890     1.0000 0.36640  0.23430  0.46800  Biso   1.000  H
  C847     1.0000 0.35750  0.27860  0.45177  Biso   1.000  C
  H891     1.0000 0.31750  0.25810  0.45140  Biso   1.000  H
  C848     1.0000 0.38810  0.32310  0.44248  Biso   1.000  C
  C849     1.0000 0.44700  0.35320  0.44281  Biso   1.000  C
  H892     1.0000 0.46790  0.38250  0.43640  Biso   1.000  H
  C850     1.0000 0.47450  0.33860  0.45301  Biso   1.000  C
  H893     1.0000 0.51440  0.36020  0.45360  Biso   1.000  H
  C851     1.0000 0.38050  0.37710  0.42352  Biso   1.000  C
  H894     1.0000 0.40850  0.41240  0.42810  Biso   1.000  H
  H895     1.0000 0.40010  0.36690  0.41650  Biso   1.000  H
  C852     1.0000 0.35790  0.52750  0.48921  Biso   1.000  C
  C853     1.0000 0.35580  0.50730  0.47460  Biso   1.000  C
  C854     1.0000 0.40030  0.53770  0.46535  Biso   1.000  C
  H896     1.0000 0.43400  0.56990  0.46830  Biso   1.000  H
  C855     1.0000 0.39360  0.51910  0.45142  Biso   1.000  C
  H897     1.0000 0.42140  0.54230  0.44490  Biso   1.000  H
  C856     1.0000 0.35010  0.47070  0.44717  Biso   1.000  C
  C857     1.0000 0.30240  0.43940  0.45589  Biso   1.000  C
  H898     1.0000 0.26960  0.40660  0.45280  Biso   1.000  H
  C858     1.0000 0.30700  0.46020  0.46946  Biso   1.000  C
  H899     1.0000 0.27540  0.44120  0.47540  Biso   1.000  H
  C859     1.0000 0.30620  0.40320  0.42809  Biso   1.000  C
  H900     1.0000 0.29100  0.37460  0.43550  Biso   1.000  H
  H901     1.0000 0.27490  0.40720  0.42430  Biso   1.000  H
  C860     1.0000 0.56450  0.30810  0.51314  Biso   1.000  C
  C861     1.0000 0.53500  0.30320  0.52676  Biso   1.000  C
  C862     1.0000 0.48350  0.29670  0.52647  Biso   1.000  C
  H902     1.0000 0.46660  0.29530  0.51790  Biso   1.000  H
  C863     1.0000 0.45390  0.29230  0.53854  Biso   1.000  C
  H903     1.0000 0.41640  0.28540  0.53820  Biso   1.000  H
  C864     1.0000 0.48190  0.29840  0.55135  Biso   1.000  C
  C865     1.0000 0.53250  0.30410  0.55070  Biso   1.000  C
  H904     1.0000 0.55040  0.30530  0.55910  Biso   1.000  H
  C866     1.0000 0.56200  0.30830  0.53851  Biso   1.000  C
  H905     1.0000 0.59930  0.31450  0.53870  Biso   1.000  H
  O337     1.0000 0.43240  0.29740  0.55896  Biso   1.000  O
  O338     1.0000 0.45680  0.40580  0.56533  Biso   1.000  O
  C867     1.0000 0.43020  0.28350  0.57410  Biso   1.000  C
  H906     1.0000 0.42610  0.25090  0.57950  Biso   1.000  H
  H907     1.0000 0.47060  0.31040  0.57250  Biso   1.000  H
  C868     1.0000 0.42470  0.37530  0.57838  Biso   1.000  C
  H908     1.0000 0.46240  0.40170  0.58220  Biso   1.000  H
  H909     1.0000 0.39520  0.37840  0.58350  Biso   1.000  H
  C869     1.0000 0.42720  0.43640  0.55871  Biso   1.000  C
  C870     1.0000 0.36410  0.40980  0.55811  Biso   1.000  C
  H910     1.0000 0.33830  0.37860  0.56350  Biso   1.000  H
  C871     1.0000 0.34790  0.44060  0.54759  Biso   1.000  C
  H911     1.0000 0.30950  0.42680  0.54540  Biso   1.000  H
  C872     1.0000 0.38880  0.48750  0.54145  Biso   1.000  C
  C873     1.0000 0.44650  0.50530  0.54540  Biso   1.000  C
  H912     1.0000 0.47490  0.54120  0.54230  Biso   1.000  H
  C874     1.0000 0.46400  0.47450  0.55330  Biso   1.000  C
  H913     1.0000 0.50220  0.48400  0.55420  Biso   1.000  H
  C875     1.0000 0.37850  0.52050  0.53069  Biso   1.000  C
  Co43     1.0000 0.52828  0.23933  0.48661  Biso   1.000  Co
  Co44     1.0000 0.62043  0.19086  0.48903  Biso   1.000  Co
  O339     1.0000 0.35386  0.33293  0.43341  Biso   1.000  O
  O340     1.0000 0.44909  0.23677  0.48032  Biso   1.000  O
  O341     1.0000 0.53138  0.30909  0.47342  Biso   1.000  O
  O342     1.0000 0.54590  0.30665  0.50200  Biso   1.000  O
  O343     1.0000 0.61310  0.31310  0.51419  Biso   1.000  O
  O344     1.0000 0.61258  0.26243  0.48562  Biso   1.000  O
  O345     1.0000 0.63250  0.11940  0.49153  Biso   1.000  O
  O346     1.0000 0.35030  0.45700  0.43342  Biso   1.000  O
  O347     1.0000 0.31481  0.50008  0.49674  Biso   1.000  O
  O348     1.0000 0.32520  0.50453  0.52869  Biso   1.000  O
  O349     1.0000 0.40528  0.57098  0.49306  Biso   1.000  O
  O350     1.0000 0.42056  0.56103  0.52510  Biso   1.000  O
  N44      1.0000 0.58720  0.01740  0.49400  Biso   1.000  N
  C876     1.0000 0.60050  0.07620  0.49750  Biso   1.000  C
  H914     1.0000 0.58170  0.07990  0.50530  Biso   1.000  H
  C877     1.0000 0.54410  0.96800  0.50251  Biso   1.000  C
  H915     1.0000 0.54290  0.98080  0.51180  Biso   1.000  H
  H916     1.0000 0.50690  0.95240  0.49830  Biso   1.000  H
  H917     1.0000 0.55480  0.93880  0.50290  Biso   1.000  H
  C878     1.0000 0.60310  0.00510  0.47992  Biso   1.000  C
  H918     1.0000 0.62320  0.04030  0.47470  Biso   1.000  H
  H919     1.0000 0.62750  0.98880  0.48110  Biso   1.000  H
  H920     1.0000 0.56890  0.97850  0.47500  Biso   1.000  H
  O351     1.0000 0.44580  0.28270  0.56456  Biso   1.000  O
  O352     1.0000 0.44820  0.41380  0.57063  Biso   1.000  O
  C879     1.0000 0.48180  0.32710  0.57447  Biso   1.000  C
  H921     1.0000 0.51340  0.32530  0.57880  Biso   1.000  H
  H922     1.0000 0.49730  0.36040  0.56840  Biso   1.000  H
  C880     1.0000 0.40490  0.35370  0.57413  Biso   1.000  C
  H923     1.0000 0.37000  0.34300  0.57930  Biso   1.000  H
  H924     1.0000 0.39360  0.33640  0.56490  Biso   1.000  H
  N45      1.0000 0.27107  0.36363  0.83403  Biso   1.000  N
  C881     1.0000 0.28437  0.42423  0.83533  Biso   1.000  C
  H925     1.0000 0.28127  0.43933  0.84383  Biso   1.000  H
  C882     1.0000 0.24137  0.32243  0.84563  Biso   1.000  C
  H926     1.0000 0.23317  0.34143  0.85303  Biso   1.000  H
  H927     1.0000 0.20607  0.29073  0.84223  Biso   1.000  H
  H928     1.0000 0.26567  0.30843  0.84913  Biso   1.000  H
  C883     1.0000 0.29277  0.34603  0.82183  Biso   1.000  C
  H929     1.0000 0.28667  0.36193  0.81343  Biso   1.000  H
  H930     1.0000 0.33317  0.36003  0.82293  Biso   1.000  H
  H931     1.0000 0.27267  0.30483  0.82123  Biso   1.000  H
  C884     1.0000 0.14337  0.61303  0.80609  Biso   1.000  C
  C885     1.0000 0.11377  0.62943  0.79516  Biso   1.000  C
  C886     1.0000 0.05317  0.59743  0.79498  Biso   1.000  C
  H932     1.0000 0.03307  0.56763  0.80133  Biso   1.000  H
  C887     1.0000 0.02417  0.61193  0.78510  Biso   1.000  C
  H933     1.0000 0.98417  0.59143  0.78473  Biso   1.000  H
  C888     1.0000 0.05477  0.65643  0.77581  Biso   1.000  C
  C889     1.0000 0.11367  0.68653  0.77614  Biso   1.000  C
  H934     1.0000 0.13457  0.71583  0.76973  Biso   1.000  H
  C890     1.0000 0.14117  0.67193  0.78634  Biso   1.000  C
  H935     1.0000 0.18107  0.69353  0.78693  Biso   1.000  H
  C891     1.0000 0.04717  0.71043  0.75685  Biso   1.000  C
  H936     1.0000 0.07517  0.74573  0.76143  Biso   1.000  H
  H937     1.0000 0.06677  0.70023  0.74983  Biso   1.000  H
  C892     1.0000 0.02457  0.86083  0.82254  Biso   1.000  C
  C893     1.0000 0.02247  0.84063  0.80793  Biso   1.000  C
  C894     1.0000 0.06697  0.87103  0.79868  Biso   1.000  C
  H938     1.0000 0.10067  0.90323  0.80163  Biso   1.000  H
  C895     1.0000 0.06027  0.85243  0.78475  Biso   1.000  C
  H939     1.0000 0.08807  0.87563  0.77823  Biso   1.000  H
  C896     1.0000 0.01677  0.80403  0.78050  Biso   1.000  C
  C897     1.0000 0.96907  0.77273  0.78922  Biso   1.000  C
  H940     1.0000 0.93627  0.73993  0.78613  Biso   1.000  H
  C898     1.0000 0.97367  0.79353  0.80279  Biso   1.000  C
  H941     1.0000 0.94207  0.77453  0.80873  Biso   1.000  H
  C899     1.0000 0.97287  0.73653  0.76142  Biso   1.000  C
  H942     1.0000 0.95767  0.70793  0.76883  Biso   1.000  H
  H943     1.0000 0.94157  0.74053  0.75763  Biso   1.000  H
  C900     1.0000 0.23117  0.64143  0.84647  Biso   1.000  C
  C901     1.0000 0.20167  0.63653  0.86009  Biso   1.000  C
  C902     1.0000 0.15017  0.63003  0.85980  Biso   1.000  C
  H944     1.0000 0.13327  0.62863  0.85123  Biso   1.000  H
  C903     1.0000 0.12057  0.62563  0.87187  Biso   1.000  C
  H945     1.0000 0.08307  0.61873  0.87153  Biso   1.000  H
  C904     1.0000 0.14857  0.63173  0.88468  Biso   1.000  C
  C905     1.0000 0.19917  0.63743  0.88403  Biso   1.000  C
  H946     1.0000 0.21707  0.63863  0.89243  Biso   1.000  H
  C906     1.0000 0.22867  0.64163  0.87184  Biso   1.000  C
  H947     1.0000 0.26597  0.64783  0.87203  Biso   1.000  H
  O353     1.0000 0.09907  0.63073  0.89229  Biso   1.000  O
  O354     1.0000 0.12347  0.73913  0.89866  Biso   1.000  O
  C907     1.0000 0.09687  0.61683  0.90743  Biso   1.000  C
  H948     1.0000 0.09277  0.58423  0.91283  Biso   1.000  H
  H949     1.0000 0.13727  0.64373  0.90583  Biso   1.000  H
  C908     1.0000 0.09137  0.70863  0.91171  Biso   1.000  C
  H950     1.0000 0.12907  0.73503  0.91553  Biso   1.000  H
  H951     1.0000 0.06187  0.71173  0.91683  Biso   1.000  H
  C909     1.0000 0.09387  0.76973  0.89204  Biso   1.000  C
  C910     1.0000 0.03077  0.74313  0.89144  Biso   1.000  C
  H952     1.0000 0.00497  0.71193  0.89683  Biso   1.000  H
  C911     1.0000 0.01457  0.77393  0.88092  Biso   1.000  C
  H953     1.0000 0.97617  0.76013  0.87873  Biso   1.000  H
  C912     1.0000 0.05547  0.82083  0.87478  Biso   1.000  C
  C913     1.0000 0.11317  0.83863  0.87873  Biso   1.000  C
  H954     1.0000 0.14157  0.87453  0.87563  Biso   1.000  H
  C914     1.0000 0.13067  0.80783  0.88663  Biso   1.000  C
  H955     1.0000 0.16887  0.81733  0.88753  Biso   1.000  H
  C915     1.0000 0.04517  0.85383  0.86402  Biso   1.000  C
  Co45     1.0000 0.19495  0.57266  0.81994  Biso   1.000  Co
  Co46     1.0000 0.28710  0.52419  0.82236  Biso   1.000  Co
  O355     1.0000 0.02053  0.66626  0.76674  Biso   1.000  O
  O356     1.0000 0.11576  0.57010  0.81365  Biso   1.000  O
  O357     1.0000 0.19805  0.64242  0.80675  Biso   1.000  O
  O358     1.0000 0.21257  0.63998  0.83533  Biso   1.000  O
  O359     1.0000 0.27977  0.64643  0.84752  Biso   1.000  O
  O360     1.0000 0.27925  0.59576  0.81895  Biso   1.000  O
  O361     1.0000 0.29917  0.45273  0.82486  Biso   1.000  O
  O362     1.0000 0.01697  0.79033  0.76675  Biso   1.000  O
  O363     1.0000 0.98148  0.83341  0.83007  Biso   1.000  O
  O364     1.0000 0.99187  0.83786  0.86202  Biso   1.000  O
  O365     1.0000 0.07195  0.90431  0.82639  Biso   1.000  O
  O366     1.0000 0.08723  0.89436  0.85843  Biso   1.000  O
  N46      1.0000 0.25387  0.35073  0.82733  Biso   1.000  N
  C916     1.0000 0.26717  0.40953  0.83083  Biso   1.000  C
  H956     1.0000 0.24837  0.41323  0.83863  Biso   1.000  H
  C917     1.0000 0.21077  0.30133  0.83584  Biso   1.000  C
  H957     1.0000 0.20957  0.31413  0.84513  Biso   1.000  H
  H958     1.0000 0.17357  0.28573  0.83163  Biso   1.000  H
  H959     1.0000 0.22147  0.27213  0.83623  Biso   1.000  H
  C918     1.0000 0.26977  0.33843  0.81325  Biso   1.000  C
  H960     1.0000 0.28987  0.37363  0.80803  Biso   1.000  H
  H961     1.0000 0.29417  0.32213  0.81443  Biso   1.000  H
  H962     1.0000 0.23557  0.31183  0.80833  Biso   1.000  H
  O367     1.0000 0.11247  0.61603  0.89789  Biso   1.000  O
  O368     1.0000 0.11487  0.74713  0.90396  Biso   1.000  O
  C919     1.0000 0.14847  0.66043  0.90780  Biso   1.000  C
  H963     1.0000 0.18007  0.65863  0.91213  Biso   1.000  H
  H964     1.0000 0.16397  0.69373  0.90173  Biso   1.000  H
  C920     1.0000 0.07157  0.68703  0.90746  Biso   1.000  C
  H965     1.0000 0.03667  0.67633  0.91263  Biso   1.000  H
  H966     1.0000 0.06027  0.66973  0.89823  Biso   1.000  H
  N47      1.0000 0.93773  0.69697  0.16737  Biso   1.000  N
  C921     1.0000 0.95103  0.75757  0.16867  Biso   1.000  C
  H967     1.0000 0.94793  0.77267  0.17717  Biso   1.000  H
  C922     1.0000 0.90803  0.65577  0.17897  Biso   1.000  C
  H968     1.0000 0.89983  0.67477  0.18637  Biso   1.000  H
  H969     1.0000 0.87273  0.62407  0.17557  Biso   1.000  H
  H970     1.0000 0.93233  0.64177  0.18247  Biso   1.000  H
  C923     1.0000 0.95943  0.67937  0.15517  Biso   1.000  C
  H971     1.0000 0.95333  0.69527  0.14677  Biso   1.000  H
  H972     1.0000 0.99983  0.69337  0.15627  Biso   1.000  H
  H973     1.0000 0.93933  0.63817  0.15457  Biso   1.000  H
  C924     1.0000 0.81003  0.94637  0.13943  Biso   1.000  C
  C925     1.0000 0.78043  0.96277  0.12850  Biso   1.000  C
  C926     1.0000 0.71983  0.93077  0.12832  Biso   1.000  C
  H974     1.0000 0.69973  0.90097  0.13467  Biso   1.000  H
  C927     1.0000 0.69083  0.94527  0.11844  Biso   1.000  C
  H975     1.0000 0.65083  0.92477  0.11807  Biso   1.000  H
  C928     1.0000 0.72143  0.98977  0.10915  Biso   1.000  C
  C929     1.0000 0.78033  0.01987  0.10948  Biso   1.000  C
  H976     1.0000 0.80123  0.04917  0.10307  Biso   1.000  H
  C930     1.0000 0.80783  0.00527  0.11968  Biso   1.000  C
  H977     1.0000 0.84773  0.02687  0.12027  Biso   1.000  H
  C931     1.0000 0.71383  0.04377  0.09019  Biso   1.000  C
  H978     1.0000 0.74183  0.07907  0.09477  Biso   1.000  H
  H979     1.0000 0.73343  0.03357  0.08317  Biso   1.000  H
  C932     1.0000 0.69123  0.19417  0.15588  Biso   1.000  C
  C933     1.0000 0.68913  0.17397  0.14127  Biso   1.000  C
  C934     1.0000 0.73363  0.20437  0.13202  Biso   1.000  C
  H980     1.0000 0.76733  0.23657  0.13497  Biso   1.000  H
  C935     1.0000 0.72693  0.18577  0.11809  Biso   1.000  C
  H981     1.0000 0.75473  0.20897  0.11157  Biso   1.000  H
  C936     1.0000 0.68343  0.13737  0.11384  Biso   1.000  C
  C937     1.0000 0.63573  0.10607  0.12256  Biso   1.000  C
  H982     1.0000 0.60293  0.07327  0.11947  Biso   1.000  H
  C938     1.0000 0.64033  0.12687  0.13613  Biso   1.000  C
  H983     1.0000 0.60873  0.10787  0.14207  Biso   1.000  H
  C939     1.0000 0.63953  0.06987  0.09476  Biso   1.000  C
  H984     1.0000 0.62433  0.04127  0.10217  Biso   1.000  H
  H985     1.0000 0.60823  0.07387  0.09097  Biso   1.000  H
  C940     1.0000 0.89783  0.97477  0.17981  Biso   1.000  C
  C941     1.0000 0.86833  0.96987  0.19343  Biso   1.000  C
  C942     1.0000 0.81683  0.96337  0.19314  Biso   1.000  C
  H986     1.0000 0.79993  0.96197  0.18457  Biso   1.000  H
  C943     1.0000 0.78723  0.95897  0.20521  Biso   1.000  C
  H987     1.0000 0.74973  0.95207  0.20487  Biso   1.000  H
  C944     1.0000 0.81523  0.96507  0.21802  Biso   1.000  C
  C945     1.0000 0.86583  0.97077  0.21737  Biso   1.000  C
  H988     1.0000 0.88373  0.97197  0.22577  Biso   1.000  H
  C946     1.0000 0.89533  0.97497  0.20518  Biso   1.000  C
  H989     1.0000 0.93263  0.98117  0.20537  Biso   1.000  H
  O369     1.0000 0.76573  0.96407  0.22563  Biso   1.000  O
  O370     1.0000 0.79013  0.07247  0.23200  Biso   1.000  O
  C947     1.0000 0.76353  0.95017  0.24077  Biso   1.000  C
  H990     1.0000 0.75943  0.91757  0.24617  Biso   1.000  H
  H991     1.0000 0.80393  0.97707  0.23917  Biso   1.000  H
  C948     1.0000 0.75803  0.04197  0.24505  Biso   1.000  C
  H992     1.0000 0.79573  0.06837  0.24887  Biso   1.000  H
  H993     1.0000 0.72853  0.04507  0.25017  Biso   1.000  H
  C949     1.0000 0.76053  0.10307  0.22538  Biso   1.000  C
  C950     1.0000 0.69743  0.07647  0.22478  Biso   1.000  C
  H994     1.0000 0.67163  0.04527  0.23017  Biso   1.000  H
  C951     1.0000 0.68123  0.10727  0.21426  Biso   1.000  C
  H995     1.0000 0.64283  0.09347  0.21207  Biso   1.000  H
  C952     1.0000 0.72213  0.15417  0.20812  Biso   1.000  C
  C953     1.0000 0.77983  0.17197  0.21207  Biso   1.000  C
  H996     1.0000 0.80823  0.20787  0.20897  Biso   1.000  H
  C954     1.0000 0.79733  0.14117  0.21997  Biso   1.000  C
  H997     1.0000 0.83553  0.15067  0.22087  Biso   1.000  H
  C955     1.0000 0.71183  0.18717  0.19736  Biso   1.000  C
  Co47     1.0000 0.86161  0.90600  0.15327  Biso   1.000  Co
  Co48     1.0000 0.95376  0.85753  0.15570  Biso   1.000  Co
  O371     1.0000 0.68719  0.99960  0.10008  Biso   1.000  O
  O372     1.0000 0.78242  0.90344  0.14699  Biso   1.000  O
  O373     1.0000 0.86471  0.97576  0.14009  Biso   1.000  O
  O374     1.0000 0.87923  0.97332  0.16867  Biso   1.000  O
  O375     1.0000 0.94643  0.97977  0.18086  Biso   1.000  O
  O376     1.0000 0.94591  0.92910  0.15229  Biso   1.000  O
  O377     1.0000 0.96583  0.78607  0.15820  Biso   1.000  O
  O378     1.0000 0.68363  0.12367  0.10009  Biso   1.000  O
  O379     1.0000 0.64814  0.16675  0.16341  Biso   1.000  O
  O380     1.0000 0.65853  0.17120  0.19536  Biso   1.000  O
  O381     1.0000 0.73861  0.23765  0.15973  Biso   1.000  O
  O382     1.0000 0.75389  0.22770  0.19177  Biso   1.000  O
  N48      1.0000 0.92053  0.68407  0.16067  Biso   1.000  N
  C956     1.0000 0.93383  0.74287  0.16417  Biso   1.000  C
  H998     1.0000 0.91503  0.74657  0.17197  Biso   1.000  H
  C957     1.0000 0.87743  0.63467  0.16918  Biso   1.000  C
  H999     1.0000 0.87623  0.64747  0.17847  Biso   1.000  H
  H1000    1.0000 0.84023  0.61907  0.16497  Biso   1.000  H
  H1001    1.0000 0.88813  0.60547  0.16957  Biso   1.000  H
  C958     1.0000 0.93643  0.67177  0.14659  Biso   1.000  C
  H1002    1.0000 0.95653  0.70697  0.14137  Biso   1.000  H
  H1003    1.0000 0.96083  0.65547  0.14777  Biso   1.000  H
  H1004    1.0000 0.90223  0.64517  0.14167  Biso   1.000  H
  O383     1.0000 0.77913  0.94937  0.23123  Biso   1.000  O
  O384     1.0000 0.78153  0.08047  0.23730  Biso   1.000  O
  C959     1.0000 0.81513  0.99377  0.24114  Biso   1.000  C
  H1005    1.0000 0.84673  0.99197  0.24547  Biso   1.000  H
  H1006    1.0000 0.83063  0.02707  0.23507  Biso   1.000  H
  C960     1.0000 0.73823  0.02037  0.24080  Biso   1.000  C
  H1007    1.0000 0.70333  0.00967  0.24597  Biso   1.000  H
  H1008    1.0000 0.72693  0.00307  0.23157  Biso   1.000  H
  N49      1.0000 0.96970  0.57410  0.50070  Biso   1.000  N
  C961     1.0000 0.90910  0.52680  0.50200  Biso   1.000  C
  H1009    1.0000 0.89400  0.50860  0.51050  Biso   1.000  H
  C962     1.0000 0.01090  0.58560  0.51230  Biso   1.000  C
  H1010    1.0000 0.99190  0.55840  0.51970  Biso   1.000  H
  H1011    1.0000 0.04260  0.58200  0.50890  Biso   1.000  H
  H1012    1.0000 0.02490  0.62390  0.51580  Biso   1.000  H
  C963     1.0000 0.98730  0.61340  0.48850  Biso   1.000  C
  H1013    1.0000 0.97140  0.59140  0.48010  Biso   1.000  H
  H1014    1.0000 0.97330  0.63980  0.48960  Biso   1.000  H
  H1015    1.0000 0.02850  0.63450  0.48790  Biso   1.000  H
  C964     1.0000 0.72030  0.19700  0.47276  Biso   1.000  C
  C965     1.0000 0.70390  0.15100  0.46183  Biso   1.000  C
  C966     1.0000 0.73590  0.12240  0.46165  Biso   1.000  C
  H1016    1.0000 0.76570  0.13210  0.46800  Biso   1.000  H
  C967     1.0000 0.72140  0.07890  0.45177  Biso   1.000  C
  H1017    1.0000 0.74190  0.05940  0.45140  Biso   1.000  H
  C968     1.0000 0.67690  0.06500  0.44248  Biso   1.000  C
  C969     1.0000 0.64680  0.09380  0.44281  Biso   1.000  C
  H1018    1.0000 0.61750  0.08540  0.43640  Biso   1.000  H
  C970     1.0000 0.66140  0.13590  0.45301  Biso   1.000  C
  H1019    1.0000 0.63980  0.15420  0.45360  Biso   1.000  H
  C971     1.0000 0.62290  0.00340  0.42352  Biso   1.000  C
  H1020    1.0000 0.58760  0.99610  0.42810  Biso   1.000  H
  H1021    1.0000 0.63310  0.03320  0.41650  Biso   1.000  H
  C972     1.0000 0.47250  0.83040  0.48921  Biso   1.000  C
  C973     1.0000 0.49270  0.84850  0.47460  Biso   1.000  C
  C974     1.0000 0.46230  0.86260  0.46535  Biso   1.000  C
  H1022    1.0000 0.43010  0.86410  0.46830  Biso   1.000  H
  C975     1.0000 0.48090  0.87450  0.45142  Biso   1.000  C
  H1023    1.0000 0.45770  0.87910  0.44490  Biso   1.000  H
  C976     1.0000 0.52930  0.87940  0.44717  Biso   1.000  C
  C977     1.0000 0.56060  0.86300  0.45589  Biso   1.000  C
  H1024    1.0000 0.59340  0.86300  0.45280  Biso   1.000  H
  C978     1.0000 0.53980  0.84680  0.46946  Biso   1.000  C
  H1025    1.0000 0.55880  0.83420  0.47540  Biso   1.000  H
  C979     1.0000 0.59680  0.90300  0.42809  Biso   1.000  C
  H1026    1.0000 0.62540  0.91640  0.43550  Biso   1.000  H
  H1027    1.0000 0.59280  0.86770  0.42430  Biso   1.000  H
  C980     1.0000 0.69190  0.25640  0.51314  Biso   1.000  C
  C981     1.0000 0.69680  0.23180  0.52676  Biso   1.000  C
  C982     1.0000 0.70330  0.18680  0.52647  Biso   1.000  C
  H1028    1.0000 0.70470  0.17130  0.51790  Biso   1.000  H
  C983     1.0000 0.70770  0.16160  0.53854  Biso   1.000  C
  H1029    1.0000 0.71460  0.13100  0.53820  Biso   1.000  H
  C984     1.0000 0.70160  0.18350  0.55135  Biso   1.000  C
  C985     1.0000 0.69590  0.22840  0.55070  Biso   1.000  C
  H1030    1.0000 0.69470  0.24510  0.55910  Biso   1.000  H
  C986     1.0000 0.69170  0.25370  0.53851  Biso   1.000  C
  H1031    1.0000 0.68550  0.28480  0.53870  Biso   1.000  H
  O385     1.0000 0.70260  0.13500  0.55896  Biso   1.000  O
  O386     1.0000 0.59420  0.05100  0.56533  Biso   1.000  O
  C987     1.0000 0.71650  0.14670  0.57410  Biso   1.000  C
  H1032    1.0000 0.74910  0.17520  0.57950  Biso   1.000  H
  H1033    1.0000 0.68960  0.16020  0.57250  Biso   1.000  H
  C988     1.0000 0.62470  0.04940  0.57838  Biso   1.000  C
  H1034    1.0000 0.59830  0.06070  0.58220  Biso   1.000  H
  H1035    1.0000 0.62160  0.01680  0.58350  Biso   1.000  H
  C989     1.0000 0.56360  0.99080  0.55871  Biso   1.000  C
  C990     1.0000 0.59020  0.95430  0.55811  Biso   1.000  C
  H1036    1.0000 0.62140  0.95970  0.56350  Biso   1.000  H
  C991     1.0000 0.55940  0.90730  0.54759  Biso   1.000  C
  H1037    1.0000 0.57320  0.88270  0.54540  Biso   1.000  H
  C992     1.0000 0.51250  0.90130  0.54145  Biso   1.000  C
  C993     1.0000 0.49470  0.94120  0.54540  Biso   1.000  C
  H1038    1.0000 0.45880  0.93370  0.54230  Biso   1.000  H
  C994     1.0000 0.52550  0.98950  0.55330  Biso   1.000  C
  H1039    1.0000 0.51600  0.01820  0.55420  Biso   1.000  H
  C995     1.0000 0.47950  0.85800  0.53069  Biso   1.000  C
  Co49     1.0000 0.76067  0.28895  0.48661  Biso   1.000  Co
  Co50     1.0000 0.80914  0.42957  0.48903  Biso   1.000  Co
  O387     1.0000 0.66707  0.02093  0.43341  Biso   1.000  O
  O388     1.0000 0.76323  0.21232  0.48032  Biso   1.000  O
  O389     1.0000 0.69091  0.22229  0.47342  Biso   1.000  O
  O390     1.0000 0.69335  0.23925  0.50200  Biso   1.000  O
  O391     1.0000 0.68690  0.30000  0.51419  Biso   1.000  O
  O392     1.0000 0.73757  0.35015  0.48562  Biso   1.000  O
  O393     1.0000 0.88060  0.51310  0.49153  Biso   1.000  O
  O394     1.0000 0.54300  0.89330  0.43342  Biso   1.000  O
  O395     1.0000 0.49992  0.81473  0.49674  Biso   1.000  O
  O396     1.0000 0.49547  0.82067  0.52869  Biso   1.000  O
  O397     1.0000 0.42902  0.83430  0.49306  Biso   1.000  O
  O398     1.0000 0.43897  0.85953  0.52510  Biso   1.000  O
  N50      1.0000 0.98260  0.56980  0.49400  Biso   1.000  N
  C996     1.0000 0.92380  0.52430  0.49750  Biso   1.000  C
  H1040    1.0000 0.92010  0.50180  0.50530  Biso   1.000  H
  C997     1.0000 0.03200  0.57610  0.50251  Biso   1.000  C
  H1041    1.0000 0.01920  0.56210  0.51180  Biso   1.000  H
  H1042    1.0000 0.04760  0.55450  0.49830  Biso   1.000  H
  H1043    1.0000 0.06120  0.61600  0.50290  Biso   1.000  H
  C998     1.0000 0.99490  0.59800  0.47992  Biso   1.000  C
  H1044    1.0000 0.95970  0.58290  0.47470  Biso   1.000  H
  H1045    1.0000 0.01120  0.63870  0.48110  Biso   1.000  H
  H1046    1.0000 0.02150  0.59040  0.47500  Biso   1.000  H
  O399     1.0000 0.71730  0.16310  0.56456  Biso   1.000  O
  O400     1.0000 0.58620  0.03440  0.57063  Biso   1.000  O
  C999     1.0000 0.67290  0.15470  0.57447  Biso   1.000  C
  H1047    1.0000 0.67470  0.18810  0.57880  Biso   1.000  H
  H1048    1.0000 0.63960  0.13690  0.56840  Biso   1.000  H
  C1000    1.0000 0.64630  0.05120  0.57413  Biso   1.000  C
  H1049    1.0000 0.65700  0.02700  0.57930  Biso   1.000  H
  H1050    1.0000 0.66360  0.05720  0.56490  Biso   1.000  H
  N51      1.0000 0.63637  0.90743  0.83403  Biso   1.000  N
  C1001    1.0000 0.57577  0.86013  0.83533  Biso   1.000  C
  H1051    1.0000 0.56067  0.84193  0.84383  Biso   1.000  H
  C1002    1.0000 0.67757  0.91893  0.84563  Biso   1.000  C
  H1052    1.0000 0.65857  0.89173  0.85303  Biso   1.000  H
  H1053    1.0000 0.70927  0.91533  0.84223  Biso   1.000  H
  H1054    1.0000 0.69157  0.95723  0.84913  Biso   1.000  H
  C1003    1.0000 0.65397  0.94673  0.82183  Biso   1.000  C
  H1055    1.0000 0.63807  0.92473  0.81343  Biso   1.000  H
  H1056    1.0000 0.63997  0.97313  0.82293  Biso   1.000  H
  H1057    1.0000 0.69517  0.96783  0.82123  Biso   1.000  H
  C1004    1.0000 0.38697  0.53033  0.80609  Biso   1.000  C
  C1005    1.0000 0.37057  0.48433  0.79516  Biso   1.000  C
  C1006    1.0000 0.40257  0.45573  0.79498  Biso   1.000  C
  H1058    1.0000 0.43237  0.46543  0.80133  Biso   1.000  H
  C1007    1.0000 0.38807  0.41223  0.78510  Biso   1.000  C
  H1059    1.0000 0.40857  0.39273  0.78473  Biso   1.000  H
  C1008    1.0000 0.34357  0.39833  0.77581  Biso   1.000  C
  C1009    1.0000 0.31347  0.42713  0.77614  Biso   1.000  C
  H1060    1.0000 0.28417  0.41873  0.76973  Biso   1.000  H
  C1010    1.0000 0.32807  0.46923  0.78634  Biso   1.000  C
  H1061    1.0000 0.30647  0.48753  0.78693  Biso   1.000  H
  C1011    1.0000 0.28957  0.33673  0.75685  Biso   1.000  C
  H1062    1.0000 0.25427  0.32943  0.76143  Biso   1.000  H
  H1063    1.0000 0.29977  0.36653  0.74983  Biso   1.000  H
  C1012    1.0000 0.13917  0.16373  0.82254  Biso   1.000  C
  C1013    1.0000 0.15937  0.18183  0.80793  Biso   1.000  C
  C1014    1.0000 0.12897  0.19593  0.79868  Biso   1.000  C
  H1064    1.0000 0.09677  0.19743  0.80163  Biso   1.000  H
  C1015    1.0000 0.14757  0.20783  0.78475  Biso   1.000  C
  H1065    1.0000 0.12437  0.21243  0.77823  Biso   1.000  H
  C1016    1.0000 0.19597  0.21273  0.78050  Biso   1.000  C
  C1017    1.0000 0.22727  0.19633  0.78922  Biso   1.000  C
  H1066    1.0000 0.26007  0.19633  0.78613  Biso   1.000  H
  C1018    1.0000 0.20647  0.18013  0.80279  Biso   1.000  C
  H1067    1.0000 0.22547  0.16753  0.80873  Biso   1.000  H
  C1019    1.0000 0.26347  0.23633  0.76142  Biso   1.000  C
  H1068    1.0000 0.29207  0.24973  0.76883  Biso   1.000  H
  H1069    1.0000 0.25947  0.20103  0.75763  Biso   1.000  H
  C1020    1.0000 0.35857  0.58973  0.84647  Biso   1.000  C
  C1021    1.0000 0.36347  0.56513  0.86009  Biso   1.000  C
  C1022    1.0000 0.36997  0.52013  0.85980  Biso   1.000  C
  H1070    1.0000 0.37137  0.50463  0.85123  Biso   1.000  H
  C1023    1.0000 0.37437  0.49493  0.87187  Biso   1.000  C
  H1071    1.0000 0.38127  0.46433  0.87153  Biso   1.000  H
  C1024    1.0000 0.36827  0.51683  0.88468  Biso   1.000  C
  C1025    1.0000 0.36257  0.56173  0.88403  Biso   1.000  C
  H1072    1.0000 0.36137  0.57843  0.89243  Biso   1.000  H
  C1026    1.0000 0.35837  0.58703  0.87184  Biso   1.000  C
  H1073    1.0000 0.35217  0.61813  0.87203  Biso   1.000  H
  O401     1.0000 0.36927  0.46833  0.89229  Biso   1.000  O
  O402     1.0000 0.26087  0.38433  0.89866  Biso   1.000  O
  C1027    1.0000 0.38317  0.48003  0.90743  Biso   1.000  C
  H1074    1.0000 0.41577  0.50853  0.91283  Biso   1.000  H
  H1075    1.0000 0.35627  0.49353  0.90583  Biso   1.000  H
  C1028    1.0000 0.29137  0.38273  0.91171  Biso   1.000  C
  H1076    1.0000 0.26497  0.39403  0.91553  Biso   1.000  H
  H1077    1.0000 0.28827  0.35013  0.91683  Biso   1.000  H
  C1029    1.0000 0.23027  0.32413  0.89204  Biso   1.000  C
  C1030    1.0000 0.25687  0.28763  0.89144  Biso   1.000  C
  H1078    1.0000 0.28807  0.29303  0.89683  Biso   1.000  H
  C1031    1.0000 0.22607  0.24063  0.88092  Biso   1.000  C
  H1079    1.0000 0.23987  0.21603  0.87873  Biso   1.000  H
  C1032    1.0000 0.17917  0.23463  0.87478  Biso   1.000  C
  C1033    1.0000 0.16137  0.27453  0.87873  Biso   1.000  C
  H1080    1.0000 0.12547  0.26703  0.87563  Biso   1.000  H
  C1034    1.0000 0.19217  0.32283  0.88663  Biso   1.000  C
  H1081    1.0000 0.18267  0.35153  0.88753  Biso   1.000  H
  C1035    1.0000 0.14617  0.19133  0.86402  Biso   1.000  C
  Co51     1.0000 0.42734  0.62228  0.81994  Biso   1.000  Co
  Co52     1.0000 0.47581  0.76290  0.82236  Biso   1.000  Co
  O403     1.0000 0.33374  0.35426  0.76674  Biso   1.000  O
  O404     1.0000 0.42990  0.54565  0.81365  Biso   1.000  O
  O405     1.0000 0.35758  0.55562  0.80675  Biso   1.000  O
  O406     1.0000 0.36002  0.57258  0.83533  Biso   1.000  O
  O407     1.0000 0.35357  0.63333  0.84752  Biso   1.000  O
  O408     1.0000 0.40424  0.68348  0.81895  Biso   1.000  O
  O409     1.0000 0.54727  0.84643  0.82486  Biso   1.000  O
  O410     1.0000 0.20967  0.22663  0.76675  Biso   1.000  O
  O411     1.0000 0.16659  0.14806  0.83007  Biso   1.000  O
  O412     1.0000 0.16214  0.15400  0.86202  Biso   1.000  O
  O413     1.0000 0.09569  0.16763  0.82639  Biso   1.000  O
  O414     1.0000 0.10564  0.19286  0.85843  Biso   1.000  O
  N52      1.0000 0.64927  0.90313  0.82733  Biso   1.000  N
  C1036    1.0000 0.59047  0.85763  0.83083  Biso   1.000  C
  H1082    1.0000 0.58677  0.83513  0.83863  Biso   1.000  H
  C1037    1.0000 0.69867  0.90943  0.83584  Biso   1.000  C
  H1083    1.0000 0.68587  0.89543  0.84513  Biso   1.000  H
  H1084    1.0000 0.71427  0.88783  0.83163  Biso   1.000  H
  H1085    1.0000 0.72787  0.94933  0.83623  Biso   1.000  H
  C1038    1.0000 0.66157  0.93133  0.81325  Biso   1.000  C
  H1086    1.0000 0.62637  0.91623  0.80803  Biso   1.000  H
  H1087    1.0000 0.67787  0.97203  0.81443  Biso   1.000  H
  H1088    1.0000 0.68817  0.92373  0.80833  Biso   1.000  H
  O415     1.0000 0.38397  0.49643  0.89789  Biso   1.000  O
  O416     1.0000 0.25287  0.36773  0.90396  Biso   1.000  O
  C1039    1.0000 0.33957  0.48803  0.90780  Biso   1.000  C
  H1089    1.0000 0.34137  0.52143  0.91213  Biso   1.000  H
  H1090    1.0000 0.30627  0.47023  0.90173  Biso   1.000  H
  C1040    1.0000 0.31297  0.38453  0.90746  Biso   1.000  C
  H1091    1.0000 0.32367  0.36033  0.91263  Biso   1.000  H
  H1092    1.0000 0.33027  0.39053  0.89823  Biso   1.000  H
  N53      1.0000 0.30303  0.24077  0.16737  Biso   1.000  N
  C1041    1.0000 0.24243  0.19347  0.16867  Biso   1.000  C
  H1093    1.0000 0.22733  0.17527  0.17717  Biso   1.000  H
  C1042    1.0000 0.34423  0.25227  0.17897  Biso   1.000  C
  H1094    1.0000 0.32523  0.22507  0.18637  Biso   1.000  H
  H1095    1.0000 0.37593  0.24867  0.17557  Biso   1.000  H
  H1096    1.0000 0.35823  0.29057  0.18247  Biso   1.000  H
  C1043    1.0000 0.32063  0.28007  0.15517  Biso   1.000  C
  H1097    1.0000 0.30473  0.25807  0.14677  Biso   1.000  H
  H1098    1.0000 0.30663  0.30647  0.15627  Biso   1.000  H
  H1099    1.0000 0.36183  0.30117  0.15457  Biso   1.000  H
  C1044    1.0000 0.05363  0.86367  0.13943  Biso   1.000  C
  C1045    1.0000 0.03723  0.81767  0.12850  Biso   1.000  C
  C1046    1.0000 0.06923  0.78907  0.12832  Biso   1.000  C
  H1100    1.0000 0.09903  0.79877  0.13467  Biso   1.000  H
  C1047    1.0000 0.05473  0.74557  0.11844  Biso   1.000  C
  H1101    1.0000 0.07523  0.72607  0.11807  Biso   1.000  H
  C1048    1.0000 0.01023  0.73167  0.10915  Biso   1.000  C
  C1049    1.0000 0.98013  0.76047  0.10948  Biso   1.000  C
  H1102    1.0000 0.95083  0.75207  0.10307  Biso   1.000  H
  C1050    1.0000 0.99473  0.80257  0.11968  Biso   1.000  C
  H1103    1.0000 0.97313  0.82087  0.12027  Biso   1.000  H
  C1051    1.0000 0.95623  0.67007  0.09019  Biso   1.000  C
  H1104    1.0000 0.92093  0.66277  0.09477  Biso   1.000  H
  H1105    1.0000 0.96643  0.69987  0.08317  Biso   1.000  H
  C1052    1.0000 0.80583  0.49707  0.15588  Biso   1.000  C
  C1053    1.0000 0.82603  0.51517  0.14127  Biso   1.000  C
  C1054    1.0000 0.79563  0.52927  0.13202  Biso   1.000  C
  H1106    1.0000 0.76343  0.53077  0.13497  Biso   1.000  H
  C1055    1.0000 0.81423  0.54117  0.11809  Biso   1.000  C
  H1107    1.0000 0.79103  0.54577  0.11157  Biso   1.000  H
  C1056    1.0000 0.86263  0.54607  0.11384  Biso   1.000  C
  C1057    1.0000 0.89393  0.52967  0.12256  Biso   1.000  C
  H1108    1.0000 0.92673  0.52967  0.11947  Biso   1.000  H
  C1058    1.0000 0.87313  0.51347  0.13613  Biso   1.000  C
  H1109    1.0000 0.89213  0.50087  0.14207  Biso   1.000  H
  C1059    1.0000 0.93013  0.56967  0.09476  Biso   1.000  C
  H1110    1.0000 0.95873  0.58307  0.10217  Biso   1.000  H
  H1111    1.0000 0.92613  0.53437  0.09097  Biso   1.000  H
  C1060    1.0000 0.02523  0.92307  0.17981  Biso   1.000  C
  C1061    1.0000 0.03013  0.89847  0.19343  Biso   1.000  C
  C1062    1.0000 0.03663  0.85347  0.19314  Biso   1.000  C
  H1112    1.0000 0.03803  0.83797  0.18457  Biso   1.000  H
  C1063    1.0000 0.04103  0.82827  0.20521  Biso   1.000  C
  H1113    1.0000 0.04793  0.79767  0.20487  Biso   1.000  H
  C1064    1.0000 0.03493  0.85017  0.21802  Biso   1.000  C
  C1065    1.0000 0.02923  0.89507  0.21737  Biso   1.000  C
  H1114    1.0000 0.02803  0.91177  0.22577  Biso   1.000  H
  C1066    1.0000 0.02503  0.92037  0.20518  Biso   1.000  C
  H1115    1.0000 0.01883  0.95147  0.20537  Biso   1.000  H
  O417     1.0000 0.03593  0.80167  0.22563  Biso   1.000  O
  O418     1.0000 0.92753  0.71767  0.23200  Biso   1.000  O
  C1067    1.0000 0.04983  0.81337  0.24077  Biso   1.000  C
  H1116    1.0000 0.08243  0.84187  0.24617  Biso   1.000  H
  H1117    1.0000 0.02293  0.82687  0.23917  Biso   1.000  H
  C1068    1.0000 0.95803  0.71607  0.24505  Biso   1.000  C
  H1118    1.0000 0.93163  0.72737  0.24887  Biso   1.000  H
  H1119    1.0000 0.95493  0.68347  0.25017  Biso   1.000  H
  C1069    1.0000 0.89693  0.65747  0.22538  Biso   1.000  C
  C1070    1.0000 0.92353  0.62097  0.22478  Biso   1.000  C
  H1120    1.0000 0.95473  0.62637  0.23017  Biso   1.000  H
  C1071    1.0000 0.89273  0.57397  0.21426  Biso   1.000  C
  H1121    1.0000 0.90653  0.54937  0.21207  Biso   1.000  H
  C1072    1.0000 0.84583  0.56797  0.20812  Biso   1.000  C
  C1073    1.0000 0.82803  0.60787  0.21207  Biso   1.000  C
  H1122    1.0000 0.79213  0.60037  0.20897  Biso   1.000  H
  C1074    1.0000 0.85883  0.65617  0.21997  Biso   1.000  C
  H1123    1.0000 0.84933  0.68487  0.22087  Biso   1.000  H
  C1075    1.0000 0.81283  0.52467  0.19736  Biso   1.000  C
  Co53     1.0000 0.09400  0.95562  0.15327  Biso   1.000  Co
  Co54     1.0000 0.14247  0.09624  0.15570  Biso   1.000  Co
  O419     1.0000 0.00040  0.68760  0.10008  Biso   1.000  O
  O420     1.0000 0.09656  0.87899  0.14699  Biso   1.000  O
  O421     1.0000 0.02424  0.88896  0.14009  Biso   1.000  O
  O422     1.0000 0.02668  0.90592  0.16867  Biso   1.000  O
  O423     1.0000 0.02023  0.96667  0.18086  Biso   1.000  O
  O424     1.0000 0.07090  0.01682  0.15229  Biso   1.000  O
  O425     1.0000 0.21393  0.17977  0.15820  Biso   1.000  O
  O426     1.0000 0.87633  0.55997  0.10009  Biso   1.000  O
  O427     1.0000 0.83325  0.48140  0.16341  Biso   1.000  O
  O428     1.0000 0.82880  0.48734  0.19536  Biso   1.000  O
  O429     1.0000 0.76235  0.50097  0.15973  Biso   1.000  O
  O430     1.0000 0.77230  0.52620  0.19177  Biso   1.000  O
  N54      1.0000 0.31593  0.23647  0.16067  Biso   1.000  N
  C1076    1.0000 0.25713  0.19097  0.16417  Biso   1.000  C
  H1124    1.0000 0.25343  0.16847  0.17197  Biso   1.000  H
  C1077    1.0000 0.36533  0.24277  0.16918  Biso   1.000  C
  H1125    1.0000 0.35253  0.22877  0.17847  Biso   1.000  H
  H1126    1.0000 0.38093  0.22117  0.16497  Biso   1.000  H
  H1127    1.0000 0.39453  0.28267  0.16957  Biso   1.000  H
  C1078    1.0000 0.32823  0.26467  0.14659  Biso   1.000  C
  H1128    1.0000 0.29303  0.24957  0.14137  Biso   1.000  H
  H1129    1.0000 0.34453  0.30537  0.14777  Biso   1.000  H
  H1130    1.0000 0.35483  0.25707  0.14167  Biso   1.000  H
  O431     1.0000 0.05063  0.82977  0.23123  Biso   1.000  O
  O432     1.0000 0.91953  0.70107  0.23730  Biso   1.000  O
  C1079    1.0000 0.00623  0.82137  0.24114  Biso   1.000  C
  H1131    1.0000 0.00803  0.85477  0.24547  Biso   1.000  H
  H1132    1.0000 0.97293  0.80357  0.23507  Biso   1.000  H
  C1080    1.0000 0.97963  0.71787  0.24080  Biso   1.000  C
  H1133    1.0000 0.99033  0.69367  0.24597  Biso   1.000  H
  H1134    1.0000 0.99693  0.72387  0.23157  Biso   1.000  H
  N55      1.0000 0.39560  0.42590  0.99930  Biso   1.000  N
  C1081    1.0000 0.38230  0.47320  0.99800  Biso   1.000  C
  H1135    1.0000 0.38540  0.49140  0.98950  Biso   1.000  H
  C1082    1.0000 0.42530  0.41440  0.98770  Biso   1.000  C
  H1136    1.0000 0.43350  0.44160  0.98030  Biso   1.000  H
  H1137    1.0000 0.46060  0.41800  0.99110  Biso   1.000  H
  H1138    1.0000 0.40100  0.37610  0.98420  Biso   1.000  H
  C1083    1.0000 0.37390  0.38660  0.01150  Biso   1.000  C
  H1139    1.0000 0.38000  0.40860  0.01990  Biso   1.000  H
  H1140    1.0000 0.33350  0.36020  0.01040  Biso   1.000  H
  H1141    1.0000 0.39400  0.36550  0.01210  Biso   1.000  H
  C1084    1.0000 0.52330  0.80300  0.02724  Biso   1.000  C
  C1085    1.0000 0.55290  0.84900  0.03817  Biso   1.000  C
  C1086    1.0000 0.61350  0.87760  0.03835  Biso   1.000  C
  H1142    1.0000 0.63360  0.86790  0.03200  Biso   1.000  H
  C1087    1.0000 0.64250  0.92110  0.04823  Biso   1.000  C
  H1143    1.0000 0.68250  0.94060  0.04860  Biso   1.000  H
  C1088    1.0000 0.61190  0.93500  0.05752  Biso   1.000  C
  C1089    1.0000 0.55300  0.90620  0.05719  Biso   1.000  C
  H1144    1.0000 0.53210  0.91460  0.06360  Biso   1.000  H
  C1090    1.0000 0.52550  0.86410  0.04699  Biso   1.000  C
  H1145    1.0000 0.48560  0.84580  0.04640  Biso   1.000  H
  C1091    1.0000 0.61950  0.99660  0.07648  Biso   1.000  C
  H1146    1.0000 0.59150  0.00390  0.07190  Biso   1.000  H
  H1147    1.0000 0.59990  0.96680  0.08350  Biso   1.000  H
  C1092    1.0000 0.64210  0.16960  0.01079  Biso   1.000  C
  C1093    1.0000 0.64420  0.15150  0.02540  Biso   1.000  C
  C1094    1.0000 0.59970  0.13740  0.03465  Biso   1.000  C
  H1148    1.0000 0.56600  0.13590  0.03170  Biso   1.000  H
  C1095    1.0000 0.60640  0.12550  0.04858  Biso   1.000  C
  H1149    1.0000 0.57860  0.12090  0.05510  Biso   1.000  H
  C1096    1.0000 0.64990  0.12060  0.05283  Biso   1.000  C
  C1097    1.0000 0.69760  0.13700  0.04411  Biso   1.000  C
  H1150    1.0000 0.73040  0.13700  0.04720  Biso   1.000  H
  C1098    1.0000 0.69300  0.15320  0.03054  Biso   1.000  C
  H1151    1.0000 0.72460  0.16580  0.02460  Biso   1.000  H
  C1099    1.0000 0.69380  0.09700  0.07191  Biso   1.000  C
  H1152    1.0000 0.70900  0.08360  0.06450  Biso   1.000  H
  H1153    1.0000 0.72510  0.13230  0.07570  Biso   1.000  H
  C1100    1.0000 0.43550  0.74360  0.98686  Biso   1.000  C
  C1101    1.0000 0.46500  0.76820  0.97324  Biso   1.000  C
  C1102    1.0000 0.51650  0.81320  0.97353  Biso   1.000  C
  H1154    1.0000 0.53340  0.82870  0.98210  Biso   1.000  H
  C1103    1.0000 0.54610  0.83840  0.96146  Biso   1.000  C
  H1155    1.0000 0.58360  0.86900  0.96180  Biso   1.000  H
  C1104    1.0000 0.51810  0.81650  0.94865  Biso   1.000  C
  C1105    1.0000 0.46750  0.77160  0.94930  Biso   1.000  C
  H1156    1.0000 0.44960  0.75490  0.94090  Biso   1.000  H
  C1106    1.0000 0.43800  0.74630  0.96149  Biso   1.000  C
  H1157    1.0000 0.40070  0.71520  0.96130  Biso   1.000  H
  O433     1.0000 0.56760  0.86500  0.94104  Biso   1.000  O
  O434     1.0000 0.54320  0.94900  0.93467  Biso   1.000  O
  C1107    1.0000 0.56980  0.85330  0.92590  Biso   1.000  C
  H1158    1.0000 0.57390  0.82480  0.92050  Biso   1.000  H
  H1159    1.0000 0.52940  0.83980  0.92750  Biso   1.000  H
  C1108    1.0000 0.57530  0.95060  0.92162  Biso   1.000  C
  H1160    1.0000 0.53760  0.93930  0.91780  Biso   1.000  H
  H1161    1.0000 0.60480  0.98320  0.91650  Biso   1.000  H
  C1109    1.0000 0.57280  0.00920  0.94129  Biso   1.000  C
  C1110    1.0000 0.63590  0.04570  0.94189  Biso   1.000  C
  H1162    1.0000 0.66170  0.04030  0.93650  Biso   1.000  H
  C1111    1.0000 0.65210  0.09270  0.95241  Biso   1.000  C
  H1163    1.0000 0.69050  0.11730  0.95460  Biso   1.000  H
  C1112    1.0000 0.61120  0.09870  0.95855  Biso   1.000  C
  C1113    1.0000 0.55350  0.05880  0.95460  Biso   1.000  C
  H1164    1.0000 0.52510  0.06630  0.95770  Biso   1.000  H
  C1114    1.0000 0.53600  0.01050  0.94670  Biso   1.000  C
  H1165    1.0000 0.49780  0.98180  0.94580  Biso   1.000  H
  C1115    1.0000 0.62150  0.14200  0.96931  Biso   1.000  C
  Co55     1.0000 0.47172  0.71105  0.01339  Biso   1.000  Co
  Co56     1.0000 0.37957  0.57043  0.01097  Biso   1.000  Co
  O435     1.0000 0.64614  0.97907  0.06659  Biso   1.000  O
  O436     1.0000 0.55091  0.78768  0.01968  Biso   1.000  O
  O437     1.0000 0.46862  0.77771  0.02658  Biso   1.000  O
  O438     1.0000 0.45410  0.76075  0.99800  Biso   1.000  O
  O439     1.0000 0.38690  0.70000  0.98581  Biso   1.000  O
  O440     1.0000 0.38742  0.64985  0.01438  Biso   1.000  O
  O441     1.0000 0.36750  0.48690  0.00847  Biso   1.000  O
  O442     1.0000 0.64970  0.10670  0.06658  Biso   1.000  O
  O443     1.0000 0.68519  0.18527  0.00326  Biso   1.000  O
  O444     1.0000 0.67480  0.17933  0.97131  Biso   1.000  O
  O445     1.0000 0.59472  0.16570  0.00694  Biso   1.000  O
  O446     1.0000 0.57944  0.14047  0.97490  Biso   1.000  O
  N56      1.0000 0.41280  0.43020  0.00600  Biso   1.000  N
  C1116    1.0000 0.39950  0.47570  0.00250  Biso   1.000  C
  H1166    1.0000 0.41830  0.49820  0.99470  Biso   1.000  H
  C1117    1.0000 0.45590  0.42390  0.99749  Biso   1.000  C
  H1167    1.0000 0.45710  0.43790  0.98820  Biso   1.000  H
  H1168    1.0000 0.49310  0.44550  0.00170  Biso   1.000  H
  H1169    1.0000 0.44520  0.38400  0.99710  Biso   1.000  H
  C1118    1.0000 0.39690  0.40200  0.02008  Biso   1.000  C
  H1170    1.0000 0.37680  0.41710  0.02530  Biso   1.000  H
  H1171    1.0000 0.37250  0.36130  0.01890  Biso   1.000  H
  H1172    1.0000 0.43110  0.40960  0.02500  Biso   1.000  H
  O447     1.0000 0.55420  0.83690  0.93544  Biso   1.000  O
  O448     1.0000 0.55180  0.96560  0.92937  Biso   1.000  O
  C1119    1.0000 0.51820  0.84530  0.92553  Biso   1.000  C
  H1173    1.0000 0.48660  0.81190  0.92120  Biso   1.000  H
  H1174    1.0000 0.50270  0.86310  0.93160  Biso   1.000  H
  C1120    1.0000 0.59510  0.94880  0.92587  Biso   1.000  C
  H1175    1.0000 0.63000  0.97300  0.92070  Biso   1.000  H
  H1176    1.0000 0.60640  0.94280  0.93510  Biso   1.000  H
  N57      1.0000 0.06227  0.75923  0.33263  Biso   1.000  N
  C1121    1.0000 0.04897  0.80653  0.33133  Biso   1.000  C
  H1177    1.0000 0.05207  0.82473  0.32283  Biso   1.000  H
  C1122    1.0000 0.09197  0.74773  0.32103  Biso   1.000  C
  H1178    1.0000 0.10017  0.77493  0.31363  Biso   1.000  H
  H1179    1.0000 0.12727  0.75133  0.32443  Biso   1.000  H
  H1180    1.0000 0.06767  0.70943  0.31753  Biso   1.000  H
  C1123    1.0000 0.04057  0.71993  0.34483  Biso   1.000  C
  H1181    1.0000 0.04667  0.74193  0.35323  Biso   1.000  H
  H1182    1.0000 0.00017  0.69353  0.34373  Biso   1.000  H
  H1183    1.0000 0.06067  0.69883  0.34543  Biso   1.000  H
  C1124    1.0000 0.18997  0.13633  0.36057  Biso   1.000  C
  C1125    1.0000 0.21957  0.18233  0.37150  Biso   1.000  C
  C1126    1.0000 0.28017  0.21093  0.37168  Biso   1.000  C
  H1184    1.0000 0.30027  0.20123  0.36533  Biso   1.000  H
  C1127    1.0000 0.30917  0.25443  0.38156  Biso   1.000  C
  H1185    1.0000 0.34917  0.27393  0.38193  Biso   1.000  H
  C1128    1.0000 0.27857  0.26833  0.39085  Biso   1.000  C
  C1129    1.0000 0.21967  0.23953  0.39052  Biso   1.000  C
  H1186    1.0000 0.19877  0.24793  0.39693  Biso   1.000  H
  C1130    1.0000 0.19217  0.19743  0.38032  Biso   1.000  C
  H1187    1.0000 0.15227  0.17913  0.37973  Biso   1.000  H
  C1131    1.0000 0.28617  0.32993  0.40981  Biso   1.000  C
  H1188    1.0000 0.25817  0.33723  0.40523  Biso   1.000  H
  H1189    1.0000 0.26657  0.30013  0.41683  Biso   1.000  H
  C1132    1.0000 0.30877  0.50293  0.34412  Biso   1.000  C
  C1133    1.0000 0.31087  0.48483  0.35873  Biso   1.000  C
  C1134    1.0000 0.26637  0.47073  0.36798  Biso   1.000  C
  H1190    1.0000 0.23267  0.46923  0.36503  Biso   1.000  H
  C1135    1.0000 0.27307  0.45883  0.38191  Biso   1.000  C
  H1191    1.0000 0.24527  0.45423  0.38843  Biso   1.000  H
  C1136    1.0000 0.31657  0.45393  0.38616  Biso   1.000  C
  C1137    1.0000 0.36427  0.47033  0.37744  Biso   1.000  C
  H1192    1.0000 0.39707  0.47033  0.38053  Biso   1.000  H
  C1138    1.0000 0.35967  0.48653  0.36387  Biso   1.000  C
  H1193    1.0000 0.39127  0.49913  0.35793  Biso   1.000  H
  C1139    1.0000 0.36047  0.43033  0.40524  Biso   1.000  C
  H1194    1.0000 0.37567  0.41693  0.39783  Biso   1.000  H
  H1195    1.0000 0.39177  0.46563  0.40903  Biso   1.000  H
  C1140    1.0000 0.10217  0.07693  0.32019  Biso   1.000  C
  C1141    1.0000 0.13167  0.10153  0.30657  Biso   1.000  C
  C1142    1.0000 0.18317  0.14653  0.30686  Biso   1.000  C
  H1196    1.0000 0.20007  0.16203  0.31543  Biso   1.000  H
  C1143    1.0000 0.21277  0.17173  0.29479  Biso   1.000  C
  H1197    1.0000 0.25027  0.20233  0.29513  Biso   1.000  H
  C1144    1.0000 0.18477  0.14983  0.28198  Biso   1.000  C
  C1145    1.0000 0.13417  0.10493  0.28263  Biso   1.000  C
  H1198    1.0000 0.11627  0.08823  0.27423  Biso   1.000  H
  C1146    1.0000 0.10467  0.07963  0.29482  Biso   1.000  C
  H1199    1.0000 0.06737  0.04853  0.29463  Biso   1.000  H
  O449     1.0000 0.23427  0.19833  0.27437  Biso   1.000  O
  O450     1.0000 0.20987  0.28233  0.26800  Biso   1.000  O
  C1147    1.0000 0.23647  0.18663  0.25923  Biso   1.000  C
  H1200    1.0000 0.24057  0.15813  0.25383  Biso   1.000  H
  H1201    1.0000 0.19607  0.17313  0.26083  Biso   1.000  H
  C1148    1.0000 0.24197  0.28393  0.25495  Biso   1.000  C
  H1202    1.0000 0.20427  0.27263  0.25113  Biso   1.000  H
  H1203    1.0000 0.27147  0.31653  0.24983  Biso   1.000  H
  C1149    1.0000 0.23947  0.34253  0.27462  Biso   1.000  C
  C1150    1.0000 0.30257  0.37903  0.27522  Biso   1.000  C
  H1204    1.0000 0.32837  0.37363  0.26983  Biso   1.000  H
  C1151    1.0000 0.31877  0.42603  0.28574  Biso   1.000  C
  H1205    1.0000 0.35717  0.45063  0.28793  Biso   1.000  H
  C1152    1.0000 0.27787  0.43203  0.29188  Biso   1.000  C
  C1153    1.0000 0.22017  0.39213  0.28793  Biso   1.000  C
  H1206    1.0000 0.19177  0.39963  0.29103  Biso   1.000  H
  C1154    1.0000 0.20267  0.34383  0.28003  Biso   1.000  C
  H1207    1.0000 0.16447  0.31513  0.27913  Biso   1.000  H
  C1155    1.0000 0.28817  0.47533  0.30264  Biso   1.000  C
  Co57     1.0000 0.13839  0.04438  0.34673  Biso   1.000  Co
  Co58     1.0000 0.04624  0.90376  0.34430  Biso   1.000  Co
  O451     1.0000 0.31281  0.31240  0.39992  Biso   1.000  O
  O452     1.0000 0.21758  0.12101  0.35301  Biso   1.000  O
  O453     1.0000 0.13529  0.11104  0.35991  Biso   1.000  O
  O454     1.0000 0.12077  0.09408  0.33133  Biso   1.000  O
  O455     1.0000 0.05357  0.03333  0.31914  Biso   1.000  O
  O456     1.0000 0.05409  0.98318  0.34771  Biso   1.000  O
  O457     1.0000 0.03417  0.82023  0.34180  Biso   1.000  O
  O458     1.0000 0.31637  0.44003  0.39991  Biso   1.000  O
  O459     1.0000 0.35186  0.51860  0.33659  Biso   1.000  O
  O460     1.0000 0.34147  0.51266  0.30464  Biso   1.000  O
  O461     1.0000 0.26139  0.49903  0.34027  Biso   1.000  O
  O462     1.0000 0.24611  0.47380  0.30823  Biso   1.000  O
  N58      1.0000 0.07947  0.76353  0.33933  Biso   1.000  N
  C1156    1.0000 0.06617  0.80903  0.33583  Biso   1.000  C
  H1208    1.0000 0.08497  0.83153  0.32803  Biso   1.000  H
  C1157    1.0000 0.12257  0.75723  0.33082  Biso   1.000  C
  H1209    1.0000 0.12377  0.77123  0.32153  Biso   1.000  H
  H1210    1.0000 0.15977  0.77883  0.33503  Biso   1.000  H
  H1211    1.0000 0.11187  0.71733  0.33043  Biso   1.000  H
  C1158    1.0000 0.06357  0.73533  0.35341  Biso   1.000  C
  H1212    1.0000 0.04347  0.75043  0.35863  Biso   1.000  H
  H1213    1.0000 0.03917  0.69463  0.35223  Biso   1.000  H
  H1214    1.0000 0.09777  0.74293  0.35833  Biso   1.000  H
  O463     1.0000 0.22087  0.17023  0.26877  Biso   1.000  O
  O464     1.0000 0.21847  0.29893  0.26270  Biso   1.000  O
  C1159    1.0000 0.18487  0.17863  0.25886  Biso   1.000  C
  H1215    1.0000 0.15327  0.14523  0.25453  Biso   1.000  H
  H1216    1.0000 0.16937  0.19643  0.26493  Biso   1.000  H
  C1160    1.0000 0.26177  0.28213  0.25920  Biso   1.000  C
  H1217    1.0000 0.29667  0.30633  0.25403  Biso   1.000  H
  H1218    1.0000 0.27307  0.27613  0.26843  Biso   1.000  H
  N59      1.0000 0.72893  0.09257  0.66597  Biso   1.000  N
  C1161    1.0000 0.71563  0.13987  0.66467  Biso   1.000  C
  H1219    1.0000 0.71873  0.15807  0.65617  Biso   1.000  H
  C1162    1.0000 0.75863  0.08107  0.65437  Biso   1.000  C
  H1220    1.0000 0.76683  0.10827  0.64697  Biso   1.000  H
  H1221    1.0000 0.79393  0.08467  0.65777  Biso   1.000  H
  H1222    1.0000 0.73433  0.04277  0.65087  Biso   1.000  H
  C1163    1.0000 0.70723  0.05327  0.67817  Biso   1.000  C
  H1223    1.0000 0.71333  0.07527  0.68657  Biso   1.000  H
  H1224    1.0000 0.66683  0.02687  0.67707  Biso   1.000  H
  H1225    1.0000 0.72733  0.03217  0.67877  Biso   1.000  H
  C1164    1.0000 0.85663  0.46967  0.69391  Biso   1.000  C
  C1165    1.0000 0.88623  0.51567  0.70484  Biso   1.000  C
  C1166    1.0000 0.94683  0.54427  0.70502  Biso   1.000  C
  H1226    1.0000 0.96693  0.53457  0.69867  Biso   1.000  H
  C1167    1.0000 0.97583  0.58777  0.71490  Biso   1.000  C
  H1227    1.0000 0.01583  0.60727  0.71527  Biso   1.000  H
  C1168    1.0000 0.94523  0.60167  0.72419  Biso   1.000  C
  C1169    1.0000 0.88633  0.57287  0.72386  Biso   1.000  C
  H1228    1.0000 0.86543  0.58127  0.73027  Biso   1.000  H
  C1170    1.0000 0.85883  0.53077  0.71366  Biso   1.000  C
  H1229    1.0000 0.81893  0.51247  0.71307  Biso   1.000  H
  C1171    1.0000 0.95283  0.66327  0.74315  Biso   1.000  C
  H1230    1.0000 0.92483  0.67057  0.73857  Biso   1.000  H
  H1231    1.0000 0.93323  0.63347  0.75017  Biso   1.000  H
  C1172    1.0000 0.97543  0.83627  0.67746  Biso   1.000  C
  C1173    1.0000 0.97753  0.81817  0.69207  Biso   1.000  C
  C1174    1.0000 0.93303  0.80407  0.70132  Biso   1.000  C
  H1232    1.0000 0.89933  0.80257  0.69837  Biso   1.000  H
  C1175    1.0000 0.93973  0.79217  0.71525  Biso   1.000  C
  H1233    1.0000 0.91193  0.78757  0.72177  Biso   1.000  H
  C1176    1.0000 0.98323  0.78727  0.71950  Biso   1.000  C
  C1177    1.0000 0.03093  0.80367  0.71078  Biso   1.000  C
  H1234    1.0000 0.06373  0.80367  0.71387  Biso   1.000  H
  C1178    1.0000 0.02633  0.81987  0.69721  Biso   1.000  C
  H1235    1.0000 0.05793  0.83247  0.69127  Biso   1.000  H
  C1179    1.0000 0.02713  0.76367  0.73858  Biso   1.000  C
  H1236    1.0000 0.04233  0.75027  0.73117  Biso   1.000  H
  H1237    1.0000 0.05843  0.79897  0.74237  Biso   1.000  H
  C1180    1.0000 0.76883  0.41027  0.65353  Biso   1.000  C
  C1181    1.0000 0.79833  0.43487  0.63991  Biso   1.000  C
  C1182    1.0000 0.84983  0.47987  0.64020  Biso   1.000  C
  H1238    1.0000 0.86673  0.49537  0.64877  Biso   1.000  H
  C1183    1.0000 0.87943  0.50507  0.62813  Biso   1.000  C
  H1239    1.0000 0.91693  0.53567  0.62847  Biso   1.000  H
  C1184    1.0000 0.85143  0.48317  0.61532  Biso   1.000  C
  C1185    1.0000 0.80083  0.43827  0.61597  Biso   1.000  C
  H1240    1.0000 0.78293  0.42157  0.60757  Biso   1.000  H
  C1186    1.0000 0.77133  0.41297  0.62816  Biso   1.000  C
  H1241    1.0000 0.73403  0.38187  0.62797  Biso   1.000  H
  O465     1.0000 0.90093  0.53167  0.60771  Biso   1.000  O
  O466     1.0000 0.87653  0.61567  0.60134  Biso   1.000  O
  C1187    1.0000 0.90313  0.51997  0.59257  Biso   1.000  C
  H1242    1.0000 0.90723  0.49147  0.58717  Biso   1.000  H
  H1243    1.0000 0.86273  0.50647  0.59417  Biso   1.000  H
  C1188    1.0000 0.90863  0.61727  0.58829  Biso   1.000  C
  H1244    1.0000 0.87093  0.60597  0.58447  Biso   1.000  H
  H1245    1.0000 0.93813  0.64987  0.58317  Biso   1.000  H
  C1189    1.0000 0.90613  0.67587  0.60796  Biso   1.000  C
  C1190    1.0000 0.96923  0.71237  0.60856  Biso   1.000  C
  H1246    1.0000 0.99503  0.70697  0.60317  Biso   1.000  H
  C1191    1.0000 0.98543  0.75937  0.61908  Biso   1.000  C
  H1247    1.0000 0.02383  0.78397  0.62127  Biso   1.000  H
  C1192    1.0000 0.94453  0.76537  0.62522  Biso   1.000  C
  C1193    1.0000 0.88683  0.72547  0.62127  Biso   1.000  C
  H1248    1.0000 0.85843  0.73297  0.62437  Biso   1.000  H
  C1194    1.0000 0.86933  0.67717  0.61337  Biso   1.000  C
  H1249    1.0000 0.83113  0.64847  0.61247  Biso   1.000  H
  C1195    1.0000 0.95483  0.80867  0.63598  Biso   1.000  C
  Co59     1.0000 0.80505  0.37772  0.68006  Biso   1.000  Co
  Co60     1.0000 0.71290  0.23710  0.67764  Biso   1.000  Co
  O467     1.0000 0.97947  0.64574  0.73326  Biso   1.000  O
  O468     1.0000 0.88424  0.45435  0.68635  Biso   1.000  O
  O469     1.0000 0.80195  0.44438  0.69325  Biso   1.000  O
  O470     1.0000 0.78743  0.42742  0.66467  Biso   1.000  O
  O471     1.0000 0.72023  0.36667  0.65248  Biso   1.000  O
  O472     1.0000 0.72075  0.31652  0.68105  Biso   1.000  O
  O473     1.0000 0.70083  0.15357  0.67514  Biso   1.000  O
  O474     1.0000 0.98303  0.77337  0.73325  Biso   1.000  O
  O475     1.0000 0.01852  0.85194  0.66993  Biso   1.000  O
  O476     1.0000 0.00813  0.84600  0.63798  Biso   1.000  O
  O477     1.0000 0.92805  0.83237  0.67361  Biso   1.000  O
  O478     1.0000 0.91277  0.80714  0.64157  Biso   1.000  O
  N60      1.0000 0.74613  0.09687  0.67267  Biso   1.000  N
  C1196    1.0000 0.73283  0.14237  0.66917  Biso   1.000  C
  H1250    1.0000 0.75163  0.16487  0.66137  Biso   1.000  H
  C1197    1.0000 0.78923  0.09057  0.66416  Biso   1.000  C
  H1251    1.0000 0.79043  0.10457  0.65487  Biso   1.000  H
  H1252    1.0000 0.82643  0.11217  0.66837  Biso   1.000  H
  H1253    1.0000 0.77853  0.05067  0.66377  Biso   1.000  H
  C1198    1.0000 0.73023  0.06867  0.68675  Biso   1.000  C
  H1254    1.0000 0.71013  0.08377  0.69197  Biso   1.000  H
  H1255    1.0000 0.70583  0.02797  0.68557  Biso   1.000  H
  H1256    1.0000 0.76443  0.07627  0.69167  Biso   1.000  H
  O479     1.0000 0.88753  0.50357  0.60211  Biso   1.000  O
  O480     1.0000 0.88513  0.63227  0.59604  Biso   1.000  O
  C1199    1.0000 0.85153  0.51197  0.59220  Biso   1.000  C
  H1257    1.0000 0.81993  0.47857  0.58787  Biso   1.000  H
  H1258    1.0000 0.83603  0.52977  0.59827  Biso   1.000  H
  C1200    1.0000 0.92843  0.61547  0.59254  Biso   1.000  C
  H1259    1.0000 0.96333  0.63967  0.58737  Biso   1.000  H
  H1260    1.0000 0.93973  0.60947  0.60177  Biso   1.000  H
  N61      1.0000 0.03030  0.60440  0.99930  Biso   1.000  N
  C1201    1.0000 0.09090  0.61770  0.99800  Biso   1.000  C
  H1261    1.0000 0.10600  0.61460  0.98950  Biso   1.000  H
  C1202    1.0000 0.98910  0.57470  0.98770  Biso   1.000  C
  H1262    1.0000 0.00810  0.56650  0.98030  Biso   1.000  H
  H1263    1.0000 0.95740  0.53940  0.99110  Biso   1.000  H
  H1264    1.0000 0.97510  0.59900  0.98420  Biso   1.000  H
  C1203    1.0000 0.01270  0.62610  0.01150  Biso   1.000  C
  H1265    1.0000 0.02860  0.62000  0.01990  Biso   1.000  H
  H1266    1.0000 0.02670  0.66650  0.01040  Biso   1.000  H
  H1267    1.0000 0.97150  0.60600  0.01210  Biso   1.000  H
  C1204    1.0000 0.27970  0.47670  0.02724  Biso   1.000  C
  C1205    1.0000 0.29610  0.44710  0.03817  Biso   1.000  C
  C1206    1.0000 0.26410  0.38650  0.03835  Biso   1.000  C
  H1268    1.0000 0.23430  0.36640  0.03200  Biso   1.000  H
  C1207    1.0000 0.27860  0.35750  0.04823  Biso   1.000  C
  H1269    1.0000 0.25810  0.31750  0.04860  Biso   1.000  H
  C1208    1.0000 0.32310  0.38810  0.05752  Biso   1.000  C
  C1209    1.0000 0.35320  0.44700  0.05719  Biso   1.000  C
  H1270    1.0000 0.38250  0.46790  0.06360  Biso   1.000  H
  C1210    1.0000 0.33860  0.47450  0.04699  Biso   1.000  C
  H1271    1.0000 0.36020  0.51440  0.04640  Biso   1.000  H
  C1211    1.0000 0.37710  0.38050  0.07648  Biso   1.000  C
  H1272    1.0000 0.41240  0.40850  0.07190  Biso   1.000  H
  H1273    1.0000 0.36690  0.40010  0.08350  Biso   1.000  H
  C1212    1.0000 0.52750  0.35790  0.01079  Biso   1.000  C
  C1213    1.0000 0.50730  0.35580  0.02540  Biso   1.000  C
  C1214    1.0000 0.53770  0.40030  0.03465  Biso   1.000  C
  H1274    1.0000 0.56990  0.43400  0.03170  Biso   1.000  H
  C1215    1.0000 0.51910  0.39360  0.04858  Biso   1.000  C
  H1275    1.0000 0.54230  0.42140  0.05510  Biso   1.000  H
  C1216    1.0000 0.47070  0.35010  0.05283  Biso   1.000  C
  C1217    1.0000 0.43940  0.30240  0.04411  Biso   1.000  C
  H1276    1.0000 0.40660  0.26960  0.04720  Biso   1.000  H
  C1218    1.0000 0.46020  0.30700  0.03054  Biso   1.000  C
  H1277    1.0000 0.44120  0.27540  0.02460  Biso   1.000  H
  C1219    1.0000 0.40320  0.30620  0.07191  Biso   1.000  C
  H1278    1.0000 0.37460  0.29100  0.06450  Biso   1.000  H
  H1279    1.0000 0.40720  0.27490  0.07570  Biso   1.000  H
  C1220    1.0000 0.30810  0.56450  0.98686  Biso   1.000  C
  C1221    1.0000 0.30320  0.53500  0.97324  Biso   1.000  C
  C1222    1.0000 0.29670  0.48350  0.97353  Biso   1.000  C
  H1280    1.0000 0.29530  0.46660  0.98210  Biso   1.000  H
  C1223    1.0000 0.29230  0.45390  0.96146  Biso   1.000  C
  H1281    1.0000 0.28540  0.41640  0.96180  Biso   1.000  H
  C1224    1.0000 0.29840  0.48190  0.94865  Biso   1.000  C
  C1225    1.0000 0.30410  0.53250  0.94930  Biso   1.000  C
  H1282    1.0000 0.30530  0.55040  0.94090  Biso   1.000  H
  C1226    1.0000 0.30830  0.56200  0.96149  Biso   1.000  C
  H1283    1.0000 0.31450  0.59930  0.96130  Biso   1.000  H
  O481     1.0000 0.29740  0.43240  0.94104  Biso   1.000  O
  O482     1.0000 0.40580  0.45680  0.93467  Biso   1.000  O
  C1227    1.0000 0.28350  0.43020  0.92590  Biso   1.000  C
  H1284    1.0000 0.25090  0.42610  0.92050  Biso   1.000  H
  H1285    1.0000 0.31040  0.47060  0.92750  Biso   1.000  H
  C1228    1.0000 0.37530  0.42470  0.92162  Biso   1.000  C
  H1286    1.0000 0.40170  0.46240  0.91780  Biso   1.000  H
  H1287    1.0000 0.37840  0.39520  0.91650  Biso   1.000  H
  C1229    1.0000 0.43640  0.42720  0.94129  Biso   1.000  C
  C1230    1.0000 0.40980  0.36410  0.94189  Biso   1.000  C
  H1288    1.0000 0.37860  0.33830  0.93650  Biso   1.000  H
  C1231    1.0000 0.44060  0.34790  0.95241  Biso   1.000  C
  H1289    1.0000 0.42680  0.30950  0.95460  Biso   1.000  H
  C1232    1.0000 0.48750  0.38880  0.95855  Biso   1.000  C
  C1233    1.0000 0.50530  0.44650  0.95460  Biso   1.000  C
  H1290    1.0000 0.54120  0.47490  0.95770  Biso   1.000  H
  C1234    1.0000 0.47450  0.46400  0.94670  Biso   1.000  C
  H1291    1.0000 0.48400  0.50220  0.94580  Biso   1.000  H
  C1235    1.0000 0.52050  0.37850  0.96931  Biso   1.000  C
  Co61     1.0000 0.23933  0.52828  0.01339  Biso   1.000  Co
  Co62     1.0000 0.19086  0.62043  0.01097  Biso   1.000  Co
  O483     1.0000 0.33293  0.35386  0.06659  Biso   1.000  O
  O484     1.0000 0.23677  0.44909  0.01968  Biso   1.000  O
  O485     1.0000 0.30909  0.53138  0.02658  Biso   1.000  O
  O486     1.0000 0.30665  0.54590  0.99800  Biso   1.000  O
  O487     1.0000 0.31310  0.61310  0.98581  Biso   1.000  O
  O488     1.0000 0.26243  0.61258  0.01438  Biso   1.000  O
  O489     1.0000 0.11940  0.63250  0.00847  Biso   1.000  O
  O490     1.0000 0.45700  0.35030  0.06658  Biso   1.000  O
  O491     1.0000 0.50008  0.31481  0.00326  Biso   1.000  O
  O492     1.0000 0.50453  0.32520  0.97131  Biso   1.000  O
  O493     1.0000 0.57098  0.40528  0.00694  Biso   1.000  O
  O494     1.0000 0.56103  0.42056  0.97490  Biso   1.000  O
  N62      1.0000 0.01740  0.58720  0.00600  Biso   1.000  N
  C1236    1.0000 0.07620  0.60050  0.00250  Biso   1.000  C
  H1292    1.0000 0.07990  0.58170  0.99470  Biso   1.000  H
  C1237    1.0000 0.96800  0.54410  0.99749  Biso   1.000  C
  H1293    1.0000 0.98080  0.54290  0.98820  Biso   1.000  H
  H1294    1.0000 0.95240  0.50690  0.00170  Biso   1.000  H
  H1295    1.0000 0.93880  0.55480  0.99710  Biso   1.000  H
  C1238    1.0000 0.00510  0.60310  0.02008  Biso   1.000  C
  H1296    1.0000 0.04030  0.62320  0.02530  Biso   1.000  H
  H1297    1.0000 0.98880  0.62750  0.01890  Biso   1.000  H
  H1298    1.0000 0.97850  0.56890  0.02500  Biso   1.000  H
  O495     1.0000 0.28270  0.44580  0.93544  Biso   1.000  O
  O496     1.0000 0.41380  0.44820  0.92937  Biso   1.000  O
  C1239    1.0000 0.32710  0.48180  0.92553  Biso   1.000  C
  H1299    1.0000 0.32530  0.51340  0.92120  Biso   1.000  H
  H1300    1.0000 0.36040  0.49730  0.93160  Biso   1.000  H
  C1240    1.0000 0.35370  0.40490  0.92587  Biso   1.000  C
  H1301    1.0000 0.34300  0.37000  0.92070  Biso   1.000  H
  H1302    1.0000 0.33640  0.39360  0.93510  Biso   1.000  H
  N63      1.0000 0.69697  0.93773  0.33263  Biso   1.000  N
  C1241    1.0000 0.75757  0.95103  0.33133  Biso   1.000  C
  H1303    1.0000 0.77267  0.94793  0.32283  Biso   1.000  H
  C1242    1.0000 0.65577  0.90803  0.32103  Biso   1.000  C
  H1304    1.0000 0.67477  0.89983  0.31363  Biso   1.000  H
  H1305    1.0000 0.62407  0.87273  0.32443  Biso   1.000  H
  H1306    1.0000 0.64177  0.93233  0.31753  Biso   1.000  H
  C1243    1.0000 0.67937  0.95943  0.34483  Biso   1.000  C
  H1307    1.0000 0.69527  0.95333  0.35323  Biso   1.000  H
  H1308    1.0000 0.69337  0.99983  0.34373  Biso   1.000  H
  H1309    1.0000 0.63817  0.93933  0.34543  Biso   1.000  H
  C1244    1.0000 0.94637  0.81003  0.36057  Biso   1.000  C
  C1245    1.0000 0.96277  0.78043  0.37150  Biso   1.000  C
  C1246    1.0000 0.93077  0.71983  0.37168  Biso   1.000  C
  H1310    1.0000 0.90097  0.69973  0.36533  Biso   1.000  H
  C1247    1.0000 0.94527  0.69083  0.38156  Biso   1.000  C
  H1311    1.0000 0.92477  0.65083  0.38193  Biso   1.000  H
  C1248    1.0000 0.98977  0.72143  0.39085  Biso   1.000  C
  C1249    1.0000 0.01987  0.78033  0.39052  Biso   1.000  C
  H1312    1.0000 0.04917  0.80123  0.39693  Biso   1.000  H
  C1250    1.0000 0.00527  0.80783  0.38032  Biso   1.000  C
  H1313    1.0000 0.02687  0.84773  0.37973  Biso   1.000  H
  C1251    1.0000 0.04377  0.71383  0.40981  Biso   1.000  C
  H1314    1.0000 0.07907  0.74183  0.40523  Biso   1.000  H
  H1315    1.0000 0.03357  0.73343  0.41683  Biso   1.000  H
  C1252    1.0000 0.19417  0.69123  0.34412  Biso   1.000  C
  C1253    1.0000 0.17397  0.68913  0.35873  Biso   1.000  C
  C1254    1.0000 0.20437  0.73363  0.36798  Biso   1.000  C
  H1316    1.0000 0.23657  0.76733  0.36503  Biso   1.000  H
  C1255    1.0000 0.18577  0.72693  0.38191  Biso   1.000  C
  H1317    1.0000 0.20897  0.75473  0.38843  Biso   1.000  H
  C1256    1.0000 0.13737  0.68343  0.38616  Biso   1.000  C
  C1257    1.0000 0.10607  0.63573  0.37744  Biso   1.000  C
  H1318    1.0000 0.07327  0.60293  0.38053  Biso   1.000  H
  C1258    1.0000 0.12687  0.64033  0.36387  Biso   1.000  C
  H1319    1.0000 0.10787  0.60873  0.35793  Biso   1.000  H
  C1259    1.0000 0.06987  0.63953  0.40524  Biso   1.000  C
  H1320    1.0000 0.04127  0.62433  0.39783  Biso   1.000  H
  H1321    1.0000 0.07387  0.60823  0.40903  Biso   1.000  H
  C1260    1.0000 0.97477  0.89783  0.32019  Biso   1.000  C
  C1261    1.0000 0.96987  0.86833  0.30657  Biso   1.000  C
  C1262    1.0000 0.96337  0.81683  0.30686  Biso   1.000  C
  H1322    1.0000 0.96197  0.79993  0.31543  Biso   1.000  H
  C1263    1.0000 0.95897  0.78723  0.29479  Biso   1.000  C
  H1323    1.0000 0.95207  0.74973  0.29513  Biso   1.000  H
  C1264    1.0000 0.96507  0.81523  0.28198  Biso   1.000  C
  C1265    1.0000 0.97077  0.86583  0.28263  Biso   1.000  C
  H1324    1.0000 0.97197  0.88373  0.27423  Biso   1.000  H
  C1266    1.0000 0.97497  0.89533  0.29482  Biso   1.000  C
  H1325    1.0000 0.98117  0.93263  0.29463  Biso   1.000  H
  O497     1.0000 0.96407  0.76573  0.27437  Biso   1.000  O
  O498     1.0000 0.07247  0.79013  0.26800  Biso   1.000  O
  C1267    1.0000 0.95017  0.76353  0.25923  Biso   1.000  C
  H1326    1.0000 0.91757  0.75943  0.25383  Biso   1.000  H
  H1327    1.0000 0.97707  0.80393  0.26083  Biso   1.000  H
  C1268    1.0000 0.04197  0.75803  0.25495  Biso   1.000  C
  H1328    1.0000 0.06837  0.79573  0.25113  Biso   1.000  H
  H1329    1.0000 0.04507  0.72853  0.24983  Biso   1.000  H
  C1269    1.0000 0.10307  0.76053  0.27462  Biso   1.000  C
  C1270    1.0000 0.07647  0.69743  0.27522  Biso   1.000  C
  H1330    1.0000 0.04527  0.67163  0.26983  Biso   1.000  H
  C1271    1.0000 0.10727  0.68123  0.28574  Biso   1.000  C
  H1331    1.0000 0.09347  0.64283  0.28793  Biso   1.000  H
  C1272    1.0000 0.15417  0.72213  0.29188  Biso   1.000  C
  C1273    1.0000 0.17197  0.77983  0.28793  Biso   1.000  C
  H1332    1.0000 0.20787  0.80823  0.29103  Biso   1.000  H
  C1274    1.0000 0.14117  0.79733  0.28003  Biso   1.000  C
  H1333    1.0000 0.15067  0.83553  0.27913  Biso   1.000  H
  C1275    1.0000 0.18717  0.71183  0.30264  Biso   1.000  C
  Co63     1.0000 0.90600  0.86161  0.34673  Biso   1.000  Co
  Co64     1.0000 0.85753  0.95376  0.34430  Biso   1.000  Co
  O499     1.0000 0.99960  0.68719  0.39992  Biso   1.000  O
  O500     1.0000 0.90344  0.78242  0.35301  Biso   1.000  O
  O501     1.0000 0.97576  0.86471  0.35991  Biso   1.000  O
  O502     1.0000 0.97332  0.87923  0.33133  Biso   1.000  O
  O503     1.0000 0.97977  0.94643  0.31914  Biso   1.000  O
  O504     1.0000 0.92910  0.94591  0.34771  Biso   1.000  O
  O505     1.0000 0.78607  0.96583  0.34180  Biso   1.000  O
  O506     1.0000 0.12367  0.68363  0.39991  Biso   1.000  O
  O507     1.0000 0.16675  0.64814  0.33659  Biso   1.000  O
  O508     1.0000 0.17120  0.65853  0.30464  Biso   1.000  O
  O509     1.0000 0.23765  0.73861  0.34027  Biso   1.000  O
  O510     1.0000 0.22770  0.75389  0.30823  Biso   1.000  O
  N64      1.0000 0.68407  0.92053  0.33933  Biso   1.000  N
  C1276    1.0000 0.74287  0.93383  0.33583  Biso   1.000  C
  H1334    1.0000 0.74657  0.91503  0.32803  Biso   1.000  H
  C1277    1.0000 0.63467  0.87743  0.33082  Biso   1.000  C
  H1335    1.0000 0.64747  0.87623  0.32153  Biso   1.000  H
  H1336    1.0000 0.61907  0.84023  0.33503  Biso   1.000  H
  H1337    1.0000 0.60547  0.88813  0.33043  Biso   1.000  H
  C1278    1.0000 0.67177  0.93643  0.35341  Biso   1.000  C
  H1338    1.0000 0.70697  0.95653  0.35863  Biso   1.000  H
  H1339    1.0000 0.65547  0.96083  0.35223  Biso   1.000  H
  H1340    1.0000 0.64517  0.90223  0.35833  Biso   1.000  H
  O511     1.0000 0.94937  0.77913  0.26877  Biso   1.000  O
  O512     1.0000 0.08047  0.78153  0.26270  Biso   1.000  O
  C1279    1.0000 0.99377  0.81513  0.25886  Biso   1.000  C
  H1341    1.0000 0.99197  0.84673  0.25453  Biso   1.000  H
  H1342    1.0000 0.02707  0.83063  0.26493  Biso   1.000  H
  C1280    1.0000 0.02037  0.73823  0.25920  Biso   1.000  C
  H1343    1.0000 0.00967  0.70333  0.25403  Biso   1.000  H
  H1344    1.0000 0.00307  0.72693  0.26843  Biso   1.000  H
  N65      1.0000 0.36363  0.27107  0.66597  Biso   1.000  N
  C1281    1.0000 0.42423  0.28437  0.66467  Biso   1.000  C
  H1345    1.0000 0.43933  0.28127  0.65617  Biso   1.000  H
  C1282    1.0000 0.32243  0.24137  0.65437  Biso   1.000  C
  H1346    1.0000 0.34143  0.23317  0.64697  Biso   1.000  H
  H1347    1.0000 0.29073  0.20607  0.65777  Biso   1.000  H
  H1348    1.0000 0.30843  0.26567  0.65087  Biso   1.000  H
  C1283    1.0000 0.34603  0.29277  0.67817  Biso   1.000  C
  H1349    1.0000 0.36193  0.28667  0.68657  Biso   1.000  H
  H1350    1.0000 0.36003  0.33317  0.67707  Biso   1.000  H
  H1351    1.0000 0.30483  0.27267  0.67877  Biso   1.000  H
  C1284    1.0000 0.61303  0.14337  0.69391  Biso   1.000  C
  C1285    1.0000 0.62943  0.11377  0.70484  Biso   1.000  C
  C1286    1.0000 0.59743  0.05317  0.70502  Biso   1.000  C
  H1352    1.0000 0.56763  0.03307  0.69867  Biso   1.000  H
  C1287    1.0000 0.61193  0.02417  0.71490  Biso   1.000  C
  H1353    1.0000 0.59143  0.98417  0.71527  Biso   1.000  H
  C1288    1.0000 0.65643  0.05477  0.72419  Biso   1.000  C
  C1289    1.0000 0.68653  0.11367  0.72386  Biso   1.000  C
  H1354    1.0000 0.71583  0.13457  0.73027  Biso   1.000  H
  C1290    1.0000 0.67193  0.14117  0.71366  Biso   1.000  C
  H1355    1.0000 0.69353  0.18107  0.71307  Biso   1.000  H
  C1291    1.0000 0.71043  0.04717  0.74315  Biso   1.000  C
  H1356    1.0000 0.74573  0.07517  0.73857  Biso   1.000  H
  H1357    1.0000 0.70023  0.06677  0.75017  Biso   1.000  H
  C1292    1.0000 0.86083  0.02457  0.67746  Biso   1.000  C
  C1293    1.0000 0.84063  0.02247  0.69207  Biso   1.000  C
  C1294    1.0000 0.87103  0.06697  0.70132  Biso   1.000  C
  H1358    1.0000 0.90323  0.10067  0.69837  Biso   1.000  H
  C1295    1.0000 0.85243  0.06027  0.71525  Biso   1.000  C
  H1359    1.0000 0.87563  0.08807  0.72177  Biso   1.000  H
  C1296    1.0000 0.80403  0.01677  0.71950  Biso   1.000  C
  C1297    1.0000 0.77273  0.96907  0.71078  Biso   1.000  C
  H1360    1.0000 0.73993  0.93627  0.71387  Biso   1.000  H
  C1298    1.0000 0.79353  0.97367  0.69721  Biso   1.000  C
  H1361    1.0000 0.77453  0.94207  0.69127  Biso   1.000  H
  C1299    1.0000 0.73653  0.97287  0.73858  Biso   1.000  C
  H1362    1.0000 0.70793  0.95767  0.73117  Biso   1.000  H
  H1363    1.0000 0.74053  0.94157  0.74237  Biso   1.000  H
  C1300    1.0000 0.64143  0.23117  0.65353  Biso   1.000  C
  C1301    1.0000 0.63653  0.20167  0.63991  Biso   1.000  C
  C1302    1.0000 0.63003  0.15017  0.64020  Biso   1.000  C
  H1364    1.0000 0.62863  0.13327  0.64877  Biso   1.000  H
  C1303    1.0000 0.62563  0.12057  0.62813  Biso   1.000  C
  H1365    1.0000 0.61873  0.08307  0.62847  Biso   1.000  H
  C1304    1.0000 0.63173  0.14857  0.61532  Biso   1.000  C
  C1305    1.0000 0.63743  0.19917  0.61597  Biso   1.000  C
  H1366    1.0000 0.63863  0.21707  0.60757  Biso   1.000  H
  C1306    1.0000 0.64163  0.22867  0.62816  Biso   1.000  C
  H1367    1.0000 0.64783  0.26597  0.62797  Biso   1.000  H
  O513     1.0000 0.63073  0.09907  0.60771  Biso   1.000  O
  O514     1.0000 0.73913  0.12347  0.60134  Biso   1.000  O
  C1307    1.0000 0.61683  0.09687  0.59257  Biso   1.000  C
  H1368    1.0000 0.58423  0.09277  0.58717  Biso   1.000  H
  H1369    1.0000 0.64373  0.13727  0.59417  Biso   1.000  H
  C1308    1.0000 0.70863  0.09137  0.58829  Biso   1.000  C
  H1370    1.0000 0.73503  0.12907  0.58447  Biso   1.000  H
  H1371    1.0000 0.71173  0.06187  0.58317  Biso   1.000  H
  C1309    1.0000 0.76973  0.09387  0.60796  Biso   1.000  C
  C1310    1.0000 0.74313  0.03077  0.60856  Biso   1.000  C
  H1372    1.0000 0.71193  0.00497  0.60317  Biso   1.000  H
  C1311    1.0000 0.77393  0.01457  0.61908  Biso   1.000  C
  H1373    1.0000 0.76013  0.97617  0.62127  Biso   1.000  H
  C1312    1.0000 0.82083  0.05547  0.62522  Biso   1.000  C
  C1313    1.0000 0.83863  0.11317  0.62127  Biso   1.000  C
  H1374    1.0000 0.87453  0.14157  0.62437  Biso   1.000  H
  C1314    1.0000 0.80783  0.13067  0.61337  Biso   1.000  C
  H1375    1.0000 0.81733  0.16887  0.61247  Biso   1.000  H
  C1315    1.0000 0.85383  0.04517  0.63598  Biso   1.000  C
  Co65     1.0000 0.57266  0.19495  0.68006  Biso   1.000  Co
  Co66     1.0000 0.52419  0.28710  0.67764  Biso   1.000  Co
  O515     1.0000 0.66626  0.02053  0.73326  Biso   1.000  O
  O516     1.0000 0.57010  0.11576  0.68635  Biso   1.000  O
  O517     1.0000 0.64242  0.19805  0.69325  Biso   1.000  O
  O518     1.0000 0.63998  0.21257  0.66467  Biso   1.000  O
  O519     1.0000 0.64643  0.27977  0.65248  Biso   1.000  O
  O520     1.0000 0.59576  0.27925  0.68105  Biso   1.000  O
  O521     1.0000 0.45273  0.29917  0.67514  Biso   1.000  O
  O522     1.0000 0.79033  0.01697  0.73325  Biso   1.000  O
  O523     1.0000 0.83341  0.98148  0.66993  Biso   1.000  O
  O524     1.0000 0.83786  0.99187  0.63798  Biso   1.000  O
  O525     1.0000 0.90431  0.07195  0.67361  Biso   1.000  O
  O526     1.0000 0.89436  0.08723  0.64157  Biso   1.000  O
  N66      1.0000 0.35073  0.25387  0.67267  Biso   1.000  N
  C1316    1.0000 0.40953  0.26717  0.66917  Biso   1.000  C
  H1376    1.0000 0.41323  0.24837  0.66137  Biso   1.000  H
  C1317    1.0000 0.30133  0.21077  0.66416  Biso   1.000  C
  H1377    1.0000 0.31413  0.20957  0.65487  Biso   1.000  H
  H1378    1.0000 0.28573  0.17357  0.66837  Biso   1.000  H
  H1379    1.0000 0.27213  0.22147  0.66377  Biso   1.000  H
  C1318    1.0000 0.33843  0.26977  0.68675  Biso   1.000  C
  H1380    1.0000 0.37363  0.28987  0.69197  Biso   1.000  H
  H1381    1.0000 0.32213  0.29417  0.68557  Biso   1.000  H
  H1382    1.0000 0.31183  0.23557  0.69167  Biso   1.000  H
  O527     1.0000 0.61603  0.11247  0.60211  Biso   1.000  O
  O528     1.0000 0.74713  0.11487  0.59604  Biso   1.000  O
  C1319    1.0000 0.66043  0.14847  0.59220  Biso   1.000  C
  H1383    1.0000 0.65863  0.18007  0.58787  Biso   1.000  H
  H1384    1.0000 0.69373  0.16397  0.59827  Biso   1.000  H
  C1320    1.0000 0.68703  0.07157  0.59254  Biso   1.000  C
  H1385    1.0000 0.67633  0.03667  0.58737  Biso   1.000  H
  H1386    1.0000 0.66973  0.06027  0.60177  Biso   1.000  H
  N67      1.0000 0.57410  0.96970  0.99930  Biso   1.000  N
  C1321    1.0000 0.52680  0.90910  0.99800  Biso   1.000  C
  H1387    1.0000 0.50860  0.89400  0.98950  Biso   1.000  H
  C1322    1.0000 0.58560  0.01090  0.98770  Biso   1.000  C
  H1388    1.0000 0.55840  0.99190  0.98030  Biso   1.000  H
  H1389    1.0000 0.58200  0.04260  0.99110  Biso   1.000  H
  H1390    1.0000 0.62390  0.02490  0.98420  Biso   1.000  H
  C1323    1.0000 0.61340  0.98730  0.01150  Biso   1.000  C
  H1391    1.0000 0.59140  0.97140  0.01990  Biso   1.000  H
  H1392    1.0000 0.63980  0.97330  0.01040  Biso   1.000  H
  H1393    1.0000 0.63450  0.02850  0.01210  Biso   1.000  H
  C1324    1.0000 0.19700  0.72030  0.02724  Biso   1.000  C
  C1325    1.0000 0.15100  0.70390  0.03817  Biso   1.000  C
  C1326    1.0000 0.12240  0.73590  0.03835  Biso   1.000  C
  H1394    1.0000 0.13210  0.76570  0.03200  Biso   1.000  H
  C1327    1.0000 0.07890  0.72140  0.04823  Biso   1.000  C
  H1395    1.0000 0.05940  0.74190  0.04860  Biso   1.000  H
  C1328    1.0000 0.06500  0.67690  0.05752  Biso   1.000  C
  C1329    1.0000 0.09380  0.64680  0.05719  Biso   1.000  C
  H1396    1.0000 0.08540  0.61750  0.06360  Biso   1.000  H
  C1330    1.0000 0.13590  0.66140  0.04699  Biso   1.000  C
  H1397    1.0000 0.15420  0.63980  0.04640  Biso   1.000  H
  C1331    1.0000 0.00340  0.62290  0.07648  Biso   1.000  C
  H1398    1.0000 0.99610  0.58760  0.07190  Biso   1.000  H
  H1399    1.0000 0.03320  0.63310  0.08350  Biso   1.000  H
  C1332    1.0000 0.83040  0.47250  0.01079  Biso   1.000  C
  C1333    1.0000 0.84850  0.49270  0.02540  Biso   1.000  C
  C1334    1.0000 0.86260  0.46230  0.03465  Biso   1.000  C
  H1400    1.0000 0.86410  0.43010  0.03170  Biso   1.000  H
  C1335    1.0000 0.87450  0.48090  0.04858  Biso   1.000  C
  H1401    1.0000 0.87910  0.45770  0.05510  Biso   1.000  H
  C1336    1.0000 0.87940  0.52930  0.05283  Biso   1.000  C
  C1337    1.0000 0.86300  0.56060  0.04411  Biso   1.000  C
  H1402    1.0000 0.86300  0.59340  0.04720  Biso   1.000  H
  C1338    1.0000 0.84680  0.53980  0.03054  Biso   1.000  C
  H1403    1.0000 0.83420  0.55880  0.02460  Biso   1.000  H
  C1339    1.0000 0.90300  0.59680  0.07191  Biso   1.000  C
  H1404    1.0000 0.91640  0.62540  0.06450  Biso   1.000  H
  H1405    1.0000 0.86770  0.59280  0.07570  Biso   1.000  H
  C1340    1.0000 0.25640  0.69190  0.98686  Biso   1.000  C
  C1341    1.0000 0.23180  0.69680  0.97324  Biso   1.000  C
  C1342    1.0000 0.18680  0.70330  0.97353  Biso   1.000  C
  H1406    1.0000 0.17130  0.70470  0.98210  Biso   1.000  H
  C1343    1.0000 0.16160  0.70770  0.96146  Biso   1.000  C
  H1407    1.0000 0.13100  0.71460  0.96180  Biso   1.000  H
  C1344    1.0000 0.18350  0.70160  0.94865  Biso   1.000  C
  C1345    1.0000 0.22840  0.69590  0.94930  Biso   1.000  C
  H1408    1.0000 0.24510  0.69470  0.94090  Biso   1.000  H
  C1346    1.0000 0.25370  0.69170  0.96149  Biso   1.000  C
  H1409    1.0000 0.28480  0.68550  0.96130  Biso   1.000  H
  O529     1.0000 0.13500  0.70260  0.94104  Biso   1.000  O
  O530     1.0000 0.05100  0.59420  0.93467  Biso   1.000  O
  C1347    1.0000 0.14670  0.71650  0.92590  Biso   1.000  C
  H1410    1.0000 0.17520  0.74910  0.92050  Biso   1.000  H
  H1411    1.0000 0.16020  0.68960  0.92750  Biso   1.000  H
  C1348    1.0000 0.04940  0.62470  0.92162  Biso   1.000  C
  H1412    1.0000 0.06070  0.59830  0.91780  Biso   1.000  H
  H1413    1.0000 0.01680  0.62160  0.91650  Biso   1.000  H
  C1349    1.0000 0.99080  0.56360  0.94129  Biso   1.000  C
  C1350    1.0000 0.95430  0.59020  0.94189  Biso   1.000  C
  H1414    1.0000 0.95970  0.62140  0.93650  Biso   1.000  H
  C1351    1.0000 0.90730  0.55940  0.95241  Biso   1.000  C
  H1415    1.0000 0.88270  0.57320  0.95460  Biso   1.000  H
  C1352    1.0000 0.90130  0.51250  0.95855  Biso   1.000  C
  C1353    1.0000 0.94120  0.49470  0.95460  Biso   1.000  C
  H1416    1.0000 0.93370  0.45880  0.95770  Biso   1.000  H
  C1354    1.0000 0.98950  0.52550  0.94670  Biso   1.000  C
  H1417    1.0000 0.01820  0.51600  0.94580  Biso   1.000  H
  C1355    1.0000 0.85800  0.47950  0.96931  Biso   1.000  C
  Co67     1.0000 0.28895  0.76067  0.01339  Biso   1.000  Co
  Co68     1.0000 0.42957  0.80914  0.01097  Biso   1.000  Co
  O531     1.0000 0.02093  0.66707  0.06659  Biso   1.000  O
  O532     1.0000 0.21232  0.76323  0.01968  Biso   1.000  O
  O533     1.0000 0.22229  0.69091  0.02658  Biso   1.000  O
  O534     1.0000 0.23925  0.69335  0.99800  Biso   1.000  O
  O535     1.0000 0.30000  0.68690  0.98581  Biso   1.000  O
  O536     1.0000 0.35015  0.73757  0.01438  Biso   1.000  O
  O537     1.0000 0.51310  0.88060  0.00847  Biso   1.000  O
  O538     1.0000 0.89330  0.54300  0.06658  Biso   1.000  O
  O539     1.0000 0.81473  0.49992  0.00326  Biso   1.000  O
  O540     1.0000 0.82067  0.49547  0.97131  Biso   1.000  O
  O541     1.0000 0.83430  0.42902  0.00694  Biso   1.000  O
  O542     1.0000 0.85953  0.43897  0.97490  Biso   1.000  O
  N68      1.0000 0.56980  0.98260  0.00600  Biso   1.000  N
  C1356    1.0000 0.52430  0.92380  0.00250  Biso   1.000  C
  H1418    1.0000 0.50180  0.92010  0.99470  Biso   1.000  H
  C1357    1.0000 0.57610  0.03200  0.99749  Biso   1.000  C
  H1419    1.0000 0.56210  0.01920  0.98820  Biso   1.000  H
  H1420    1.0000 0.55450  0.04760  0.00170  Biso   1.000  H
  H1421    1.0000 0.61600  0.06120  0.99710  Biso   1.000  H
  C1358    1.0000 0.59800  0.99490  0.02008  Biso   1.000  C
  H1422    1.0000 0.58290  0.95970  0.02530  Biso   1.000  H
  H1423    1.0000 0.63870  0.01120  0.01890  Biso   1.000  H
  H1424    1.0000 0.59040  0.02150  0.02500  Biso   1.000  H
  O543     1.0000 0.16310  0.71730  0.93544  Biso   1.000  O
  O544     1.0000 0.03440  0.58620  0.92937  Biso   1.000  O
  C1359    1.0000 0.15470  0.67290  0.92553  Biso   1.000  C
  H1425    1.0000 0.18810  0.67470  0.92120  Biso   1.000  H
  H1426    1.0000 0.13690  0.63960  0.93160  Biso   1.000  H
  C1360    1.0000 0.05120  0.64630  0.92587  Biso   1.000  C
  H1427    1.0000 0.02700  0.65700  0.92070  Biso   1.000  H
  H1428    1.0000 0.05720  0.66360  0.93510  Biso   1.000  H
  N69      1.0000 0.24077  0.30303  0.33263  Biso   1.000  N
  C1361    1.0000 0.19347  0.24243  0.33133  Biso   1.000  C
  H1429    1.0000 0.17527  0.22733  0.32283  Biso   1.000  H
  C1362    1.0000 0.25227  0.34423  0.32103  Biso   1.000  C
  H1430    1.0000 0.22507  0.32523  0.31363  Biso   1.000  H
  H1431    1.0000 0.24867  0.37593  0.32443  Biso   1.000  H
  H1432    1.0000 0.29057  0.35823  0.31753  Biso   1.000  H
  C1363    1.0000 0.28007  0.32063  0.34483  Biso   1.000  C
  H1433    1.0000 0.25807  0.30473  0.35323  Biso   1.000  H
  H1434    1.0000 0.30647  0.30663  0.34373  Biso   1.000  H
  H1435    1.0000 0.30117  0.36183  0.34543  Biso   1.000  H
  C1364    1.0000 0.86367  0.05363  0.36057  Biso   1.000  C
  C1365    1.0000 0.81767  0.03723  0.37150  Biso   1.000  C
  C1366    1.0000 0.78907  0.06923  0.37168  Biso   1.000  C
  H1436    1.0000 0.79877  0.09903  0.36533  Biso   1.000  H
  C1367    1.0000 0.74557  0.05473  0.38156  Biso   1.000  C
  H1437    1.0000 0.72607  0.07523  0.38193  Biso   1.000  H
  C1368    1.0000 0.73167  0.01023  0.39085  Biso   1.000  C
  C1369    1.0000 0.76047  0.98013  0.39052  Biso   1.000  C
  H1438    1.0000 0.75207  0.95083  0.39693  Biso   1.000  H
  C1370    1.0000 0.80257  0.99473  0.38032  Biso   1.000  C
  H1439    1.0000 0.82087  0.97313  0.37973  Biso   1.000  H
  C1371    1.0000 0.67007  0.95623  0.40981  Biso   1.000  C
  H1440    1.0000 0.66277  0.92093  0.40523  Biso   1.000  H
  H1441    1.0000 0.69987  0.96643  0.41683  Biso   1.000  H
  C1372    1.0000 0.49707  0.80583  0.34412  Biso   1.000  C
  C1373    1.0000 0.51517  0.82603  0.35873  Biso   1.000  C
  C1374    1.0000 0.52927  0.79563  0.36798  Biso   1.000  C
  H1442    1.0000 0.53077  0.76343  0.36503  Biso   1.000  H
  C1375    1.0000 0.54117  0.81423  0.38191  Biso   1.000  C
  H1443    1.0000 0.54577  0.79103  0.38843  Biso   1.000  H
  C1376    1.0000 0.54607  0.86263  0.38616  Biso   1.000  C
  C1377    1.0000 0.52967  0.89393  0.37744  Biso   1.000  C
  H1444    1.0000 0.52967  0.92673  0.38053  Biso   1.000  H
  C1378    1.0000 0.51347  0.87313  0.36387  Biso   1.000  C
  H1445    1.0000 0.50087  0.89213  0.35793  Biso   1.000  H
  C1379    1.0000 0.56967  0.93013  0.40524  Biso   1.000  C
  H1446    1.0000 0.58307  0.95873  0.39783  Biso   1.000  H
  H1447    1.0000 0.53437  0.92613  0.40903  Biso   1.000  H
  C1380    1.0000 0.92307  0.02523  0.32019  Biso   1.000  C
  C1381    1.0000 0.89847  0.03013  0.30657  Biso   1.000  C
  C1382    1.0000 0.85347  0.03663  0.30686  Biso   1.000  C
  H1448    1.0000 0.83797  0.03803  0.31543  Biso   1.000  H
  C1383    1.0000 0.82827  0.04103  0.29479  Biso   1.000  C
  H1449    1.0000 0.79767  0.04793  0.29513  Biso   1.000  H
  C1384    1.0000 0.85017  0.03493  0.28198  Biso   1.000  C
  C1385    1.0000 0.89507  0.02923  0.28263  Biso   1.000  C
  H1450    1.0000 0.91177  0.02803  0.27423  Biso   1.000  H
  C1386    1.0000 0.92037  0.02503  0.29482  Biso   1.000  C
  H1451    1.0000 0.95147  0.01883  0.29463  Biso   1.000  H
  O545     1.0000 0.80167  0.03593  0.27437  Biso   1.000  O
  O546     1.0000 0.71767  0.92753  0.26800  Biso   1.000  O
  C1387    1.0000 0.81337  0.04983  0.25923  Biso   1.000  C
  H1452    1.0000 0.84187  0.08243  0.25383  Biso   1.000  H
  H1453    1.0000 0.82687  0.02293  0.26083  Biso   1.000  H
  C1388    1.0000 0.71607  0.95803  0.25495  Biso   1.000  C
  H1454    1.0000 0.72737  0.93163  0.25113  Biso   1.000  H
  H1455    1.0000 0.68347  0.95493  0.24983  Biso   1.000  H
  C1389    1.0000 0.65747  0.89693  0.27462  Biso   1.000  C
  C1390    1.0000 0.62097  0.92353  0.27522  Biso   1.000  C
  H1456    1.0000 0.62637  0.95473  0.26983  Biso   1.000  H
  C1391    1.0000 0.57397  0.89273  0.28574  Biso   1.000  C
  H1457    1.0000 0.54937  0.90653  0.28793  Biso   1.000  H
  C1392    1.0000 0.56797  0.84583  0.29188  Biso   1.000  C
  C1393    1.0000 0.60787  0.82803  0.28793  Biso   1.000  C
  H1458    1.0000 0.60037  0.79213  0.29103  Biso   1.000  H
  C1394    1.0000 0.65617  0.85883  0.28003  Biso   1.000  C
  H1459    1.0000 0.68487  0.84933  0.27913  Biso   1.000  H
  C1395    1.0000 0.52467  0.81283  0.30264  Biso   1.000  C
  Co69     1.0000 0.95562  0.09400  0.34673  Biso   1.000  Co
  Co70     1.0000 0.09624  0.14247  0.34430  Biso   1.000  Co
  O547     1.0000 0.68760  0.00040  0.39992  Biso   1.000  O
  O548     1.0000 0.87899  0.09656  0.35301  Biso   1.000  O
  O549     1.0000 0.88896  0.02424  0.35991  Biso   1.000  O
  O550     1.0000 0.90592  0.02668  0.33133  Biso   1.000  O
  O551     1.0000 0.96667  0.02023  0.31914  Biso   1.000  O
  O552     1.0000 0.01682  0.07090  0.34771  Biso   1.000  O
  O553     1.0000 0.17977  0.21393  0.34180  Biso   1.000  O
  O554     1.0000 0.55997  0.87633  0.39991  Biso   1.000  O
  O555     1.0000 0.48140  0.83325  0.33659  Biso   1.000  O
  O556     1.0000 0.48734  0.82880  0.30464  Biso   1.000  O
  O557     1.0000 0.50097  0.76235  0.34027  Biso   1.000  O
  O558     1.0000 0.52620  0.77230  0.30823  Biso   1.000  O
  N70      1.0000 0.23647  0.31593  0.33933  Biso   1.000  N
  C1396    1.0000 0.19097  0.25713  0.33583  Biso   1.000  C
  H1460    1.0000 0.16847  0.25343  0.32803  Biso   1.000  H
  C1397    1.0000 0.24277  0.36533  0.33082  Biso   1.000  C
  H1461    1.0000 0.22877  0.35253  0.32153  Biso   1.000  H
  H1462    1.0000 0.22117  0.38093  0.33503  Biso   1.000  H
  H1463    1.0000 0.28267  0.39453  0.33043  Biso   1.000  H
  C1398    1.0000 0.26467  0.32823  0.35341  Biso   1.000  C
  H1464    1.0000 0.24957  0.29303  0.35863  Biso   1.000  H
  H1465    1.0000 0.30537  0.34453  0.35223  Biso   1.000  H
  H1466    1.0000 0.25707  0.35483  0.35833  Biso   1.000  H
  O559     1.0000 0.82977  0.05063  0.26877  Biso   1.000  O
  O560     1.0000 0.70107  0.91953  0.26270  Biso   1.000  O
  C1399    1.0000 0.82137  0.00623  0.25886  Biso   1.000  C
  H1467    1.0000 0.85477  0.00803  0.25453  Biso   1.000  H
  H1468    1.0000 0.80357  0.97293  0.26493  Biso   1.000  H
  C1400    1.0000 0.71787  0.97963  0.25920  Biso   1.000  C
  H1469    1.0000 0.69367  0.99033  0.25403  Biso   1.000  H
  H1470    1.0000 0.72387  0.99693  0.26843  Biso   1.000  H
  N71      1.0000 0.90743  0.63637  0.66597  Biso   1.000  N
  C1401    1.0000 0.86013  0.57577  0.66467  Biso   1.000  C
  H1471    1.0000 0.84193  0.56067  0.65617  Biso   1.000  H
  C1402    1.0000 0.91893  0.67757  0.65437  Biso   1.000  C
  H1472    1.0000 0.89173  0.65857  0.64697  Biso   1.000  H
  H1473    1.0000 0.91533  0.70927  0.65777  Biso   1.000  H
  H1474    1.0000 0.95723  0.69157  0.65087  Biso   1.000  H
  C1403    1.0000 0.94673  0.65397  0.67817  Biso   1.000  C
  H1475    1.0000 0.92473  0.63807  0.68657  Biso   1.000  H
  H1476    1.0000 0.97313  0.63997  0.67707  Biso   1.000  H
  H1477    1.0000 0.96783  0.69517  0.67877  Biso   1.000  H
  C1404    1.0000 0.53033  0.38697  0.69391  Biso   1.000  C
  C1405    1.0000 0.48433  0.37057  0.70484  Biso   1.000  C
  C1406    1.0000 0.45573  0.40257  0.70502  Biso   1.000  C
  H1478    1.0000 0.46543  0.43237  0.69867  Biso   1.000  H
  C1407    1.0000 0.41223  0.38807  0.71490  Biso   1.000  C
  H1479    1.0000 0.39273  0.40857  0.71527  Biso   1.000  H
  C1408    1.0000 0.39833  0.34357  0.72419  Biso   1.000  C
  C1409    1.0000 0.42713  0.31347  0.72386  Biso   1.000  C
  H1480    1.0000 0.41873  0.28417  0.73027  Biso   1.000  H
  C1410    1.0000 0.46923  0.32807  0.71366  Biso   1.000  C
  H1481    1.0000 0.48753  0.30647  0.71307  Biso   1.000  H
  C1411    1.0000 0.33673  0.28957  0.74315  Biso   1.000  C
  H1482    1.0000 0.32943  0.25427  0.73857  Biso   1.000  H
  H1483    1.0000 0.36653  0.29977  0.75017  Biso   1.000  H
  C1412    1.0000 0.16373  0.13917  0.67746  Biso   1.000  C
  C1413    1.0000 0.18183  0.15937  0.69207  Biso   1.000  C
  C1414    1.0000 0.19593  0.12897  0.70132  Biso   1.000  C
  H1484    1.0000 0.19743  0.09677  0.69837  Biso   1.000  H
  C1415    1.0000 0.20783  0.14757  0.71525  Biso   1.000  C
  H1485    1.0000 0.21243  0.12437  0.72177  Biso   1.000  H
  C1416    1.0000 0.21273  0.19597  0.71950  Biso   1.000  C
  C1417    1.0000 0.19633  0.22727  0.71078  Biso   1.000  C
  H1486    1.0000 0.19633  0.26007  0.71387  Biso   1.000  H
  C1418    1.0000 0.18013  0.20647  0.69721  Biso   1.000  C
  H1487    1.0000 0.16753  0.22547  0.69127  Biso   1.000  H
  C1419    1.0000 0.23633  0.26347  0.73858  Biso   1.000  C
  H1488    1.0000 0.24973  0.29207  0.73117  Biso   1.000  H
  H1489    1.0000 0.20103  0.25947  0.74237  Biso   1.000  H
  C1420    1.0000 0.58973  0.35857  0.65353  Biso   1.000  C
  C1421    1.0000 0.56513  0.36347  0.63991  Biso   1.000  C
  C1422    1.0000 0.52013  0.36997  0.64020  Biso   1.000  C
  H1490    1.0000 0.50463  0.37137  0.64877  Biso   1.000  H
  C1423    1.0000 0.49493  0.37437  0.62813  Biso   1.000  C
  H1491    1.0000 0.46433  0.38127  0.62847  Biso   1.000  H
  C1424    1.0000 0.51683  0.36827  0.61532  Biso   1.000  C
  C1425    1.0000 0.56173  0.36257  0.61597  Biso   1.000  C
  H1492    1.0000 0.57843  0.36137  0.60757  Biso   1.000  H
  C1426    1.0000 0.58703  0.35837  0.62816  Biso   1.000  C
  H1493    1.0000 0.61813  0.35217  0.62797  Biso   1.000  H
  O561     1.0000 0.46833  0.36927  0.60771  Biso   1.000  O
  O562     1.0000 0.38433  0.26087  0.60134  Biso   1.000  O
  C1427    1.0000 0.48003  0.38317  0.59257  Biso   1.000  C
  H1494    1.0000 0.50853  0.41577  0.58717  Biso   1.000  H
  H1495    1.0000 0.49353  0.35627  0.59417  Biso   1.000  H
  C1428    1.0000 0.38273  0.29137  0.58829  Biso   1.000  C
  H1496    1.0000 0.39403  0.26497  0.58447  Biso   1.000  H
  H1497    1.0000 0.35013  0.28827  0.58317  Biso   1.000  H
  C1429    1.0000 0.32413  0.23027  0.60796  Biso   1.000  C
  C1430    1.0000 0.28763  0.25687  0.60856  Biso   1.000  C
  H1498    1.0000 0.29303  0.28807  0.60317  Biso   1.000  H
  C1431    1.0000 0.24063  0.22607  0.61908  Biso   1.000  C
  H1499    1.0000 0.21603  0.23987  0.62127  Biso   1.000  H
  C1432    1.0000 0.23463  0.17917  0.62522  Biso   1.000  C
  C1433    1.0000 0.27453  0.16137  0.62127  Biso   1.000  C
  H1500    1.0000 0.26703  0.12547  0.62437  Biso   1.000  H
  C1434    1.0000 0.32283  0.19217  0.61337  Biso   1.000  C
  H1501    1.0000 0.35153  0.18267  0.61247  Biso   1.000  H
  C1435    1.0000 0.19133  0.14617  0.63598  Biso   1.000  C
  Co71     1.0000 0.62228  0.42734  0.68006  Biso   1.000  Co
  Co72     1.0000 0.76290  0.47581  0.67764  Biso   1.000  Co
  O563     1.0000 0.35426  0.33374  0.73326  Biso   1.000  O
  O564     1.0000 0.54565  0.42990  0.68635  Biso   1.000  O
  O565     1.0000 0.55562  0.35758  0.69325  Biso   1.000  O
  O566     1.0000 0.57258  0.36002  0.66467  Biso   1.000  O
  O567     1.0000 0.63333  0.35357  0.65248  Biso   1.000  O
  O568     1.0000 0.68348  0.40424  0.68105  Biso   1.000  O
  O569     1.0000 0.84643  0.54727  0.67514  Biso   1.000  O
  O570     1.0000 0.22663  0.20967  0.73325  Biso   1.000  O
  O571     1.0000 0.14806  0.16659  0.66993  Biso   1.000  O
  O572     1.0000 0.15400  0.16214  0.63798  Biso   1.000  O
  O573     1.0000 0.16763  0.09569  0.67361  Biso   1.000  O
  O574     1.0000 0.19286  0.10564  0.64157  Biso   1.000  O
  N72      1.0000 0.90313  0.64927  0.67267  Biso   1.000  N
  C1436    1.0000 0.85763  0.59047  0.66917  Biso   1.000  C
  H1502    1.0000 0.83513  0.58677  0.66137  Biso   1.000  H
  C1437    1.0000 0.90943  0.69867  0.66416  Biso   1.000  C
  H1503    1.0000 0.89543  0.68587  0.65487  Biso   1.000  H
  H1504    1.0000 0.88783  0.71427  0.66837  Biso   1.000  H
  H1505    1.0000 0.94933  0.72787  0.66377  Biso   1.000  H
  C1438    1.0000 0.93133  0.66157  0.68675  Biso   1.000  C
  H1506    1.0000 0.91623  0.62637  0.69197  Biso   1.000  H
  H1507    1.0000 0.97203  0.67787  0.68557  Biso   1.000  H
  H1508    1.0000 0.92373  0.68817  0.69167  Biso   1.000  H
  O575     1.0000 0.49643  0.38397  0.60211  Biso   1.000  O
  O576     1.0000 0.36773  0.25287  0.59604  Biso   1.000  O
  C1439    1.0000 0.48803  0.33957  0.59220  Biso   1.000  C
  H1509    1.0000 0.52143  0.34137  0.58787  Biso   1.000  H
  H1510    1.0000 0.47023  0.30627  0.59827  Biso   1.000  H
  C1440    1.0000 0.38453  0.31297  0.59254  Biso   1.000  C
  H1511    1.0000 0.36033  0.32367  0.58737  Biso   1.000  H
  H1512    1.0000 0.39053  0.33027  0.60177  Biso   1.000  H
  C1441    1.0000 0.94842  0.33333  0.58333  Biso   1.000  C
  C1442    1.0000 0.66667  0.61508  0.58333  Biso   1.000  C
  C1443    1.0000 0.38492  0.05158  0.58333  Biso   1.000  C
  C1444    1.0000 0.33333  0.94842  0.91667  Biso   1.000  C
  C1445    1.0000 0.00000  0.28175  0.25000  Biso   1.000  C
  C1446    1.0000 0.61508  0.66667  0.91667  Biso   1.000  C
  C1447    1.0000 0.28175  0.00000  0.25000  Biso   1.000  C
  C1448    1.0000 0.05158  0.38492  0.91667  Biso   1.000  C
  C1449    1.0000 0.71825  0.71825  0.25000  Biso   1.000  C
  C1450    1.0000 0.05158  0.66667  0.41667  Biso   1.000  C
  C1451    1.0000 0.71825  0.00000  0.75000  Biso   1.000  C
  C1452    1.0000 0.33333  0.38492  0.41667  Biso   1.000  C
  C1453    1.0000 0.00000  0.71825  0.75000  Biso   1.000  C
  C1454    1.0000 0.61508  0.94842  0.41667  Biso   1.000  C
  C1455    1.0000 0.28175  0.28175  0.75000  Biso   1.000  C
  C1456    1.0000 0.66667  0.05158  0.08333  Biso   1.000  C
  C1457    1.0000 0.38492  0.33333  0.08333  Biso   1.000  C
  C1458    1.0000 0.94842  0.61508  0.08333  Biso   1.000  C
  C1459    1.0000 0.10878  0.44212  0.41667  Biso   1.000  C
  C1460    1.0000 0.10453  0.43787  0.41667  Biso   1.000  C
  C1461    1.0000 0.77545  0.77545  0.75000  Biso   1.000  C
  C1462    1.0000 0.77120  0.77120  0.75000  Biso   1.000  C
  C1463    1.0000 0.55788  0.66667  0.41667  Biso   1.000  C
  C1464    1.0000 0.56213  0.66667  0.41667  Biso   1.000  C
  C1465    1.0000 0.22455  0.00000  0.75000  Biso   1.000  C
  C1466    1.0000 0.22880  0.00000  0.75000  Biso   1.000  C
  C1467    1.0000 0.33333  0.89122  0.41667  Biso   1.000  C
  C1468    1.0000 0.33333  0.89547  0.41667  Biso   1.000  C
  C1469    1.0000 0.00000  0.22455  0.75000  Biso   1.000  C
  C1470    1.0000 0.00000  0.22880  0.75000  Biso   1.000  C
  C1471    1.0000 0.44212  0.10878  0.08333  Biso   1.000  C
  C1472    1.0000 0.43787  0.10453  0.08333  Biso   1.000  C
  C1473    1.0000 0.66667  0.55788  0.08333  Biso   1.000  C
  C1474    1.0000 0.66667  0.56213  0.08333  Biso   1.000  C
  C1475    1.0000 0.89122  0.33333  0.08333  Biso   1.000  C
  C1476    1.0000 0.89547  0.33333  0.08333  Biso   1.000  C
  C1477    1.0000 0.89122  0.55788  0.58333  Biso   1.000  C
  C1478    1.0000 0.89547  0.56213  0.58333  Biso   1.000  C
  C1479    1.0000 0.44212  0.33333  0.58333  Biso   1.000  C
  C1480    1.0000 0.43787  0.33333  0.58333  Biso   1.000  C
  C1481    1.0000 0.66667  0.10878  0.58333  Biso   1.000  C
  C1482    1.0000 0.66667  0.10453  0.58333  Biso   1.000  C
  C1483    1.0000 0.55788  0.89122  0.91667  Biso   1.000  C
  C1484    1.0000 0.56213  0.89547  0.91667  Biso   1.000  C
  C1485    1.0000 0.22455  0.22455  0.25000  Biso   1.000  C
  C1486    1.0000 0.22880  0.22880  0.25000  Biso   1.000  C
  C1487    1.0000 0.33333  0.44212  0.91667  Biso   1.000  C
  C1488    1.0000 0.33333  0.43787  0.91667  Biso   1.000  C
  C1489    1.0000 0.00000  0.77545  0.25000  Biso   1.000  C
  C1490    1.0000 0.00000  0.77120  0.25000  Biso   1.000  C
  C1491    1.0000 0.10878  0.66667  0.91667  Biso   1.000  C
  C1492    1.0000 0.10453  0.66667  0.91667  Biso   1.000  C
  C1493    1.0000 0.77545  0.00000  0.25000  Biso   1.000  C
  C1494    1.0000 0.77120  0.00000  0.25000  Biso   1.000  C
  Co73     1.0000 0.33333  0.66667  0.50198  Biso   1.000  Co
  Co74     1.0000 0.00000  0.00000  0.83531  Biso   1.000  Co
  Co75     1.0000 0.66667  0.33333  0.16865  Biso   1.000  Co
  Co76     1.0000 0.66667  0.33333  0.99802  Biso   1.000  Co
  Co77     1.0000 0.33333  0.66667  0.33135  Biso   1.000  Co
  Co78     1.0000 0.00000  0.00000  0.66469  Biso   1.000  Co
  Co79     1.0000 0.66667  0.33333  0.49802  Biso   1.000  Co
  Co80     1.0000 0.33333  0.66667  0.83135  Biso   1.000  Co
  Co81     1.0000 0.00000  0.00000  0.16469  Biso   1.000  Co
  Co82     1.0000 0.33333  0.66667  0.00198  Biso   1.000  Co
  Co83     1.0000 0.00000  0.00000  0.33531  Biso   1.000  Co
  Co84     1.0000 0.66667  0.33333  0.66865  Biso   1.000  Co
