data_image0
_cell_length_a       34.0339
_cell_length_b       18.7606
_cell_length_c       22.3666
_cell_angle_alpha    90
_cell_angle_beta     116.429
_cell_angle_gamma    90

_symmetry_space_group_name_H-M    "P 1"
_symmetry_int_tables_number       1

loop_
  _symmetry_equiv_pos_as_xyz
  'x, y, z'

loop_
  _atom_site_label
  _atom_site_occupancy
  _atom_site_fract_x
  _atom_site_fract_y
  _atom_site_fract_z
  _atom_site_thermal_displace_type
  _atom_site_B_iso_or_equiv
  _atom_site_type_symbol
  Cd1      1.0000 0.28770  0.12421  0.70115  Biso   1.000  Cd
  Cd2      1.0000 0.82478  0.06246  0.95180  Biso   1.000  Cd
  Cd3      1.0000 0.67546  0.35703  0.18842  Biso   1.000  Cd
  O1       1.0000 0.35700  0.14330  0.72070  Biso   1.000  O
  O2       1.0000 0.35030  0.13210  0.81220  Biso   1.000  O
  O3       1.0000 0.77951  0.09790  0.99370  Biso   1.000  O
  O4       1.0000 0.72479  0.06380  0.89680  Biso   1.000  O
  O5       1.0000 0.68497  0.32320  0.09490  Biso   1.000  O
  O6       1.0000 0.75387  0.28330  0.12900  Biso   1.000  O
  O7       1.0000 0.88140  0.93910  0.42400  Biso   1.000  O
  O8       1.0000 0.89480  0.84170  0.37460  Biso   1.000  O
  O9       1.0000 0.21515  0.05110  0.66490  Biso   1.000  O
  O10      1.0000 0.27985  0.01340  0.73960  Biso   1.000  O
  O11      1.0000 0.30228  0.75430  0.77490  Biso   1.000  O
  O12      1.0000 0.24639  0.68030  0.74140  Biso   1.000  O
  O13      1.0000 0.87899  0.10070  0.05170  Biso   1.000  O
  O14      1.0000 0.83030  0.94770  0.97970  Biso   1.000  O
  O15      1.0000 0.68190  0.42840  0.27090  Biso   1.000  O
  N1       1.0000 0.58890  0.15560  0.90950  Biso   1.000  N
  N2       1.0000 0.11289  0.84150  0.62150  Biso   1.000  N
  N3       1.0000 0.89910  0.16420  0.14840  Biso   1.000  N
  N4       1.0000 0.81150  0.82290  0.97030  Biso   1.000  N
  N5       1.0000 0.72680  0.49190  0.35980  Biso   1.000  N
  C1       1.0000 0.37450  0.13480  0.77550  Biso   1.000  C
  C2       1.0000 0.44910  0.13770  0.78950  Biso   1.000  C
  H1       1.0000 0.43730  0.13010  0.74370  Biso   1.000  H
  C3       1.0000 0.42390  0.14060  0.81560  Biso   1.000  C
  C4       1.0000 0.49460  0.14530  0.82570  Biso   1.000  C
  H2       1.0000 0.51160  0.14120  0.80280  Biso   1.000  H
  C5       1.0000 0.51440  0.15770  0.88940  Biso   1.000  C
  C6       1.0000 0.48670  0.15950  0.92570  Biso   1.000  C
  H3       1.0000 0.49970  0.16380  0.97200  Biso   1.000  H
  C7       1.0000 0.56220  0.16800  0.92740  Biso   1.000  C
  C8       1.0000 0.44160  0.15470  0.89030  Biso   1.000  C
  H4       1.0000 0.42320  0.15980  0.91070  Biso   1.000  H
  C9       1.0000 0.73950  0.09700  0.95210  Biso   1.000  C
  C10      1.0000 0.70870  0.13710  0.97030  Biso   1.000  C
  C11      1.0000 0.72510  0.18480  0.02320  Biso   1.000  C
  H5       1.0000 0.75520  0.18990  0.04850  Biso   1.000  H
  C12      1.0000 0.69620  0.22530  0.03860  Biso   1.000  C
  C13      1.0000 0.65070  0.21580  0.00180  Biso   1.000  C
  H6       1.0000 0.63150  0.24180  0.01260  Biso   1.000  H
  C14      1.0000 0.63410  0.16650  0.94810  Biso   1.000  C
  C15      1.0000 0.66310  0.12940  0.93250  Biso   1.000  C
  H7       1.0000 0.65230  0.09850  0.89610  Biso   1.000  H
  C16      1.0000 0.71350  0.28060  0.09180  Biso   1.000  C
  C17      1.0000 0.90550  0.88940  0.41890  Biso   1.000  C
  C18      1.0000 0.95250  0.88750  0.47330  Biso   1.000  C
  C19      1.0000 0.96710  0.93500  0.52410  Biso   1.000  C
  H8       1.0000 0.94760  0.96890  0.52550  Biso   1.000  H
  C20      1.0000 0.01090  0.93560  0.57560  Biso   1.000  C
  H9       1.0000 0.02000  0.96880  0.61000  Biso   1.000  H
  C21      1.0000 0.03940  0.88490  0.57250  Biso   1.000  C
  C22      1.0000 0.02410  0.83720  0.52100  Biso   1.000  C
  H10      1.0000 0.04330  0.80360  0.51820  Biso   1.000  H
  C23      1.0000 0.98060  0.83740  0.47240  Biso   1.000  C
  H11      1.0000 0.97090  0.80270  0.43930  Biso   1.000  H
  C24      1.0000 0.08610  0.88680  0.62300  Biso   1.000  C
  C25      1.0000 0.24030  0.00200  0.70320  Biso   1.000  C
  C26      1.0000 0.22130  0.93090  0.70160  Biso   1.000  C
  C27      1.0000 0.24780  0.87300  0.72780  Biso   1.000  C
  H12      1.0000 0.27790  0.87970  0.75070  Biso   1.000  H
  C28      1.0000 0.23110  0.80480  0.72140  Biso   1.000  C
  C29      1.0000 0.18620  0.79450  0.68760  Biso   1.000  C
  H13      1.0000 0.17460  0.74870  0.68220  Biso   1.000  H
  C30      1.0000 0.15840  0.85310  0.66180  Biso   1.000  C
  C31      1.0000 0.17660  0.92120  0.66890  Biso   1.000  C
  H14      1.0000 0.15820  0.96040  0.65130  Biso   1.000  H
  C32      1.0000 0.26210  0.74330  0.74710  Biso   1.000  C
  C33      1.0000 0.86990  0.13780  0.09020  Biso   1.000  C
  C34      1.0000 0.94660  0.15270  0.17440  Biso   1.000  C
  H15      1.0000 0.96160  0.17630  0.21670  Biso   1.000  H
  H16      1.0000 0.95630  0.17180  0.14350  Biso   1.000  H
  H17      1.0000 0.95270  0.10250  0.18000  Biso   1.000  H
  C35      1.0000 0.88600  0.20830  0.19060  Biso   1.000  C
  H18      1.0000 0.91160  0.22250  0.22990  Biso   1.000  H
  H19      1.0000 0.86690  0.18140  0.20330  Biso   1.000  H
  H20      1.0000 0.87090  0.24990  0.16620  Biso   1.000  H
  C36      1.0000 0.80310  0.89860  0.95640  Biso   1.000  C
  C37      1.0000 0.85780  0.80420  0.99980  Biso   1.000  C
  H21      1.0000 0.86090  0.75330  0.00450  Biso   1.000  H
  H22      1.0000 0.87270  0.82600  0.04300  Biso   1.000  H
  H23      1.0000 0.87040  0.82070  0.97150  Biso   1.000  H
  C38      1.0000 0.77080  0.78200  0.94110  Biso   1.000  C
  H24      1.0000 0.74640  0.81390  0.92050  Biso   1.000  H
  H25      1.0000 0.76780  0.75530  0.97550  Biso   1.000  H
  H26      1.0000 0.77140  0.74980  0.90820  Biso   1.000  H
  C39      1.0000 0.71490  0.43270  0.31910  Biso   1.000  C
  C40      1.0000 0.69490  0.55460  0.34500  Biso   1.000  C
  H27      1.0000 0.70860  0.59160  0.37730  Biso   1.000  H
  H28      1.0000 0.68740  0.57270  0.30110  Biso   1.000  H
  H29      1.0000 0.66880  0.53870  0.34730  Biso   1.000  H
  C41      1.0000 0.77090  0.51760  0.39850  Biso   1.000  C
  H30      1.0000 0.77010  0.56080  0.42090  Biso   1.000  H
  H31      1.0000 0.78770  0.48240  0.43090  Biso   1.000  H
  H32      1.0000 0.78420  0.52680  0.36940  Biso   1.000  H
  H33      1.0000 0.57000  0.17800  0.97300  Biso   1.000  H
  H34      1.0000 0.06000  0.88300  0.62800  Biso   1.000  H
  C42      1.0000 0.45680  0.08240  0.80230  Biso   1.000  C
  C43      1.0000 0.49580  0.10480  0.66260  Biso   1.000  C
  C44      1.0000 0.48890  0.21520  0.87300  Biso   1.000  C
  C45      1.0000 0.44360  0.19910  0.83520  Biso   1.000  C
  H35      1.0000 0.44690  0.04140  0.77650  Biso   1.000  H
  H36      1.0000 0.47450  0.08610  0.67360  Biso   1.000  H
  H37      1.0000 0.49960  0.26120  0.88510  Biso   1.000  H
  H38      1.0000 0.42530  0.23880  0.82290  Biso   1.000  H
  O16      1.0000 0.36500  0.07030  0.73710  Biso   1.000  O
  O17      1.0000 0.35400  0.17560  0.75950  Biso   1.000  O
  Cd4      1.0000 0.78770  0.62421  0.70115  Biso   1.000  Cd
  Cd5      1.0000 0.32478  0.56246  0.95180  Biso   1.000  Cd
  Cd6      1.0000 0.17546  0.85703  0.18842  Biso   1.000  Cd
  O18      1.0000 0.85700  0.64330  0.72070  Biso   1.000  O
  O19      1.0000 0.85030  0.63210  0.81220  Biso   1.000  O
  O20      1.0000 0.27951  0.59790  0.99370  Biso   1.000  O
  O21      1.0000 0.22479  0.56380  0.89680  Biso   1.000  O
  O22      1.0000 0.18497  0.82320  0.09490  Biso   1.000  O
  O23      1.0000 0.25387  0.78330  0.12900  Biso   1.000  O
  O24      1.0000 0.38140  0.43910  0.42400  Biso   1.000  O
  O25      1.0000 0.39480  0.34170  0.37460  Biso   1.000  O
  O26      1.0000 0.71515  0.55110  0.66490  Biso   1.000  O
  O27      1.0000 0.77985  0.51340  0.73960  Biso   1.000  O
  O28      1.0000 0.80228  0.25430  0.77490  Biso   1.000  O
  O29      1.0000 0.74639  0.18030  0.74140  Biso   1.000  O
  O30      1.0000 0.37899  0.60070  0.05170  Biso   1.000  O
  O31      1.0000 0.33030  0.44770  0.97970  Biso   1.000  O
  O32      1.0000 0.18190  0.92840  0.27090  Biso   1.000  O
  N6       1.0000 0.08890  0.65560  0.90950  Biso   1.000  N
  N7       1.0000 0.61289  0.34150  0.62150  Biso   1.000  N
  N8       1.0000 0.39910  0.66420  0.14840  Biso   1.000  N
  N9       1.0000 0.31150  0.32290  0.97030  Biso   1.000  N
  N10      1.0000 0.22680  0.99190  0.35980  Biso   1.000  N
  C46      1.0000 0.87450  0.63480  0.77550  Biso   1.000  C
  C47      1.0000 0.94910  0.63770  0.78950  Biso   1.000  C
  H39      1.0000 0.93730  0.63010  0.74370  Biso   1.000  H
  C48      1.0000 0.92390  0.64060  0.81560  Biso   1.000  C
  C49      1.0000 0.99460  0.64530  0.82570  Biso   1.000  C
  H40      1.0000 0.01160  0.64120  0.80280  Biso   1.000  H
  C50      1.0000 0.01440  0.65770  0.88940  Biso   1.000  C
  C51      1.0000 0.98670  0.65950  0.92570  Biso   1.000  C
  H41      1.0000 0.99970  0.66380  0.97200  Biso   1.000  H
  C52      1.0000 0.06220  0.66800  0.92740  Biso   1.000  C
  C53      1.0000 0.94160  0.65470  0.89030  Biso   1.000  C
  H42      1.0000 0.92320  0.65980  0.91070  Biso   1.000  H
  C54      1.0000 0.23950  0.59700  0.95210  Biso   1.000  C
  C55      1.0000 0.20870  0.63710  0.97030  Biso   1.000  C
  C56      1.0000 0.22510  0.68480  0.02320  Biso   1.000  C
  H43      1.0000 0.25520  0.68990  0.04850  Biso   1.000  H
  C57      1.0000 0.19620  0.72530  0.03860  Biso   1.000  C
  C58      1.0000 0.15070  0.71580  0.00180  Biso   1.000  C
  H44      1.0000 0.13150  0.74180  0.01260  Biso   1.000  H
  C59      1.0000 0.13410  0.66650  0.94810  Biso   1.000  C
  C60      1.0000 0.16310  0.62940  0.93250  Biso   1.000  C
  H45      1.0000 0.15230  0.59850  0.89610  Biso   1.000  H
  C61      1.0000 0.21350  0.78060  0.09180  Biso   1.000  C
  C62      1.0000 0.40550  0.38940  0.41890  Biso   1.000  C
  C63      1.0000 0.45250  0.38750  0.47330  Biso   1.000  C
  C64      1.0000 0.46710  0.43500  0.52410  Biso   1.000  C
  H46      1.0000 0.44760  0.46890  0.52550  Biso   1.000  H
  C65      1.0000 0.51090  0.43560  0.57560  Biso   1.000  C
  H47      1.0000 0.52000  0.46880  0.61000  Biso   1.000  H
  C66      1.0000 0.53940  0.38490  0.57250  Biso   1.000  C
  C67      1.0000 0.52410  0.33720  0.52100  Biso   1.000  C
  H48      1.0000 0.54330  0.30360  0.51820  Biso   1.000  H
  C68      1.0000 0.48060  0.33740  0.47240  Biso   1.000  C
  H49      1.0000 0.47090  0.30270  0.43930  Biso   1.000  H
  C69      1.0000 0.58610  0.38680  0.62300  Biso   1.000  C
  C70      1.0000 0.74030  0.50200  0.70320  Biso   1.000  C
  C71      1.0000 0.72130  0.43090  0.70160  Biso   1.000  C
  C72      1.0000 0.74780  0.37300  0.72780  Biso   1.000  C
  H50      1.0000 0.77790  0.37970  0.75070  Biso   1.000  H
  C73      1.0000 0.73110  0.30480  0.72140  Biso   1.000  C
  C74      1.0000 0.68620  0.29450  0.68760  Biso   1.000  C
  H51      1.0000 0.67460  0.24870  0.68220  Biso   1.000  H
  C75      1.0000 0.65840  0.35310  0.66180  Biso   1.000  C
  C76      1.0000 0.67660  0.42120  0.66890  Biso   1.000  C
  H52      1.0000 0.65820  0.46040  0.65130  Biso   1.000  H
  C77      1.0000 0.76210  0.24330  0.74710  Biso   1.000  C
  C78      1.0000 0.36990  0.63780  0.09020  Biso   1.000  C
  C79      1.0000 0.44660  0.65270  0.17440  Biso   1.000  C
  H53      1.0000 0.46160  0.67630  0.21670  Biso   1.000  H
  H54      1.0000 0.45630  0.67180  0.14350  Biso   1.000  H
  H55      1.0000 0.45270  0.60250  0.18000  Biso   1.000  H
  C80      1.0000 0.38600  0.70830  0.19060  Biso   1.000  C
  H56      1.0000 0.41160  0.72250  0.22990  Biso   1.000  H
  H57      1.0000 0.36690  0.68140  0.20330  Biso   1.000  H
  H58      1.0000 0.37090  0.74990  0.16620  Biso   1.000  H
  C81      1.0000 0.30310  0.39860  0.95640  Biso   1.000  C
  C82      1.0000 0.35780  0.30420  0.99980  Biso   1.000  C
  H59      1.0000 0.36090  0.25330  0.00450  Biso   1.000  H
  H60      1.0000 0.37270  0.32600  0.04300  Biso   1.000  H
  H61      1.0000 0.37040  0.32070  0.97150  Biso   1.000  H
  C83      1.0000 0.27080  0.28200  0.94110  Biso   1.000  C
  H62      1.0000 0.24640  0.31390  0.92050  Biso   1.000  H
  H63      1.0000 0.26780  0.25530  0.97550  Biso   1.000  H
  H64      1.0000 0.27140  0.24980  0.90820  Biso   1.000  H
  C84      1.0000 0.21490  0.93270  0.31910  Biso   1.000  C
  C85      1.0000 0.19490  0.05460  0.34500  Biso   1.000  C
  H65      1.0000 0.20860  0.09160  0.37730  Biso   1.000  H
  H66      1.0000 0.18740  0.07270  0.30110  Biso   1.000  H
  H67      1.0000 0.16880  0.03870  0.34730  Biso   1.000  H
  C86      1.0000 0.27090  0.01760  0.39850  Biso   1.000  C
  H68      1.0000 0.27010  0.06080  0.42090  Biso   1.000  H
  H69      1.0000 0.28770  0.98240  0.43090  Biso   1.000  H
  H70      1.0000 0.28420  0.02680  0.36940  Biso   1.000  H
  H71      1.0000 0.07000  0.67800  0.97300  Biso   1.000  H
  H72      1.0000 0.56000  0.38300  0.62800  Biso   1.000  H
  C87      1.0000 0.95680  0.58240  0.80230  Biso   1.000  C
  C88      1.0000 0.99580  0.60480  0.66260  Biso   1.000  C
  C89      1.0000 0.98890  0.71520  0.87300  Biso   1.000  C
  C90      1.0000 0.94360  0.69910  0.83520  Biso   1.000  C
  H73      1.0000 0.94690  0.54140  0.77650  Biso   1.000  H
  H74      1.0000 0.97450  0.58610  0.67360  Biso   1.000  H
  H75      1.0000 0.99960  0.76120  0.88510  Biso   1.000  H
  H76      1.0000 0.92530  0.73880  0.82290  Biso   1.000  H
  O33      1.0000 0.86500  0.57030  0.73710  Biso   1.000  O
  O34      1.0000 0.85400  0.67560  0.75950  Biso   1.000  O
  Cd7      1.0000 0.71230  0.12421  0.79885  Biso   1.000  Cd
  Cd8      1.0000 0.17522  0.06246  0.54820  Biso   1.000  Cd
  Cd9      1.0000 0.32454  0.35703  0.31158  Biso   1.000  Cd
  O35      1.0000 0.64300  0.14330  0.77930  Biso   1.000  O
  O36      1.0000 0.64970  0.13210  0.68780  Biso   1.000  O
  O37      1.0000 0.22049  0.09790  0.50630  Biso   1.000  O
  O38      1.0000 0.27521  0.06380  0.60320  Biso   1.000  O
  O39      1.0000 0.31503  0.32320  0.40510  Biso   1.000  O
  O40      1.0000 0.24613  0.28330  0.37100  Biso   1.000  O
  O41      1.0000 0.11860  0.93910  0.07600  Biso   1.000  O
  O42      1.0000 0.10520  0.84170  0.12540  Biso   1.000  O
  O43      1.0000 0.78485  0.05110  0.83510  Biso   1.000  O
  O44      1.0000 0.72015  0.01340  0.76040  Biso   1.000  O
  O45      1.0000 0.69772  0.75430  0.72510  Biso   1.000  O
  O46      1.0000 0.75361  0.68030  0.75860  Biso   1.000  O
  O47      1.0000 0.12101  0.10070  0.44830  Biso   1.000  O
  O48      1.0000 0.16970  0.94770  0.52030  Biso   1.000  O
  O49      1.0000 0.31810  0.42840  0.22910  Biso   1.000  O
  N11      1.0000 0.41110  0.15560  0.59050  Biso   1.000  N
  N12      1.0000 0.88711  0.84150  0.87850  Biso   1.000  N
  N13      1.0000 0.10090  0.16420  0.35160  Biso   1.000  N
  N14      1.0000 0.18850  0.82290  0.52970  Biso   1.000  N
  N15      1.0000 0.27320  0.49190  0.14020  Biso   1.000  N
  C91      1.0000 0.62550  0.13480  0.72450  Biso   1.000  C
  C92      1.0000 0.55090  0.13770  0.71050  Biso   1.000  C
  H77      1.0000 0.56270  0.13010  0.75630  Biso   1.000  H
  C93      1.0000 0.57610  0.14060  0.68440  Biso   1.000  C
  C94      1.0000 0.50540  0.14530  0.67430  Biso   1.000  C
  H78      1.0000 0.48840  0.14120  0.69720  Biso   1.000  H
  C95      1.0000 0.48560  0.15770  0.61060  Biso   1.000  C
  C96      1.0000 0.51330  0.15950  0.57430  Biso   1.000  C
  H79      1.0000 0.50030  0.16380  0.52800  Biso   1.000  H
  C97      1.0000 0.43780  0.16800  0.57260  Biso   1.000  C
  C98      1.0000 0.55840  0.15470  0.60970  Biso   1.000  C
  H80      1.0000 0.57680  0.15980  0.58930  Biso   1.000  H
  C99      1.0000 0.26050  0.09700  0.54790  Biso   1.000  C
  C100     1.0000 0.29130  0.13710  0.52970  Biso   1.000  C
  C101     1.0000 0.27490  0.18480  0.47680  Biso   1.000  C
  H81      1.0000 0.24480  0.18990  0.45150  Biso   1.000  H
  C102     1.0000 0.30380  0.22530  0.46140  Biso   1.000  C
  C103     1.0000 0.34930  0.21580  0.49820  Biso   1.000  C
  H82      1.0000 0.36850  0.24180  0.48740  Biso   1.000  H
  C104     1.0000 0.36590  0.16650  0.55190  Biso   1.000  C
  C105     1.0000 0.33690  0.12940  0.56750  Biso   1.000  C
  H83      1.0000 0.34770  0.09850  0.60390  Biso   1.000  H
  C106     1.0000 0.28650  0.28060  0.40820  Biso   1.000  C
  C107     1.0000 0.09450  0.88940  0.08110  Biso   1.000  C
  C108     1.0000 0.04750  0.88750  0.02670  Biso   1.000  C
  C109     1.0000 0.03290  0.93500  0.97590  Biso   1.000  C
  H84      1.0000 0.05240  0.96890  0.97450  Biso   1.000  H
  C110     1.0000 0.98910  0.93560  0.92440  Biso   1.000  C
  H85      1.0000 0.98000  0.96880  0.89000  Biso   1.000  H
  C111     1.0000 0.96060  0.88490  0.92750  Biso   1.000  C
  C112     1.0000 0.97590  0.83720  0.97900  Biso   1.000  C
  H86      1.0000 0.95670  0.80360  0.98180  Biso   1.000  H
  C113     1.0000 0.01940  0.83740  0.02760  Biso   1.000  C
  H87      1.0000 0.02910  0.80270  0.06070  Biso   1.000  H
  C114     1.0000 0.91390  0.88680  0.87700  Biso   1.000  C
  C115     1.0000 0.75970  0.00200  0.79680  Biso   1.000  C
  C116     1.0000 0.77870  0.93090  0.79840  Biso   1.000  C
  C117     1.0000 0.75220  0.87300  0.77220  Biso   1.000  C
  H88      1.0000 0.72210  0.87970  0.74930  Biso   1.000  H
  C118     1.0000 0.76890  0.80480  0.77860  Biso   1.000  C
  C119     1.0000 0.81380  0.79450  0.81240  Biso   1.000  C
  H89      1.0000 0.82540  0.74870  0.81780  Biso   1.000  H
  C120     1.0000 0.84160  0.85310  0.83820  Biso   1.000  C
  C121     1.0000 0.82340  0.92120  0.83110  Biso   1.000  C
  H90      1.0000 0.84180  0.96040  0.84870  Biso   1.000  H
  C122     1.0000 0.73790  0.74330  0.75290  Biso   1.000  C
  C123     1.0000 0.13010  0.13780  0.40980  Biso   1.000  C
  C124     1.0000 0.05340  0.15270  0.32560  Biso   1.000  C
  H91      1.0000 0.03840  0.17630  0.28330  Biso   1.000  H
  H92      1.0000 0.04370  0.17180  0.35650  Biso   1.000  H
  H93      1.0000 0.04730  0.10250  0.32000  Biso   1.000  H
  C125     1.0000 0.11400  0.20830  0.30940  Biso   1.000  C
  H94      1.0000 0.08840  0.22250  0.27010  Biso   1.000  H
  H95      1.0000 0.13310  0.18140  0.29670  Biso   1.000  H
  H96      1.0000 0.12910  0.24990  0.33380  Biso   1.000  H
  C126     1.0000 0.19690  0.89860  0.54360  Biso   1.000  C
  C127     1.0000 0.14220  0.80420  0.50020  Biso   1.000  C
  H97      1.0000 0.13910  0.75330  0.49550  Biso   1.000  H
  H98      1.0000 0.12730  0.82600  0.45700  Biso   1.000  H
  H99      1.0000 0.12960  0.82070  0.52850  Biso   1.000  H
  C128     1.0000 0.22920  0.78200  0.55890  Biso   1.000  C
  H100     1.0000 0.25360  0.81390  0.57950  Biso   1.000  H
  H101     1.0000 0.23220  0.75530  0.52450  Biso   1.000  H
  H102     1.0000 0.22860  0.74980  0.59180  Biso   1.000  H
  C129     1.0000 0.28510  0.43270  0.18090  Biso   1.000  C
  C130     1.0000 0.30510  0.55460  0.15500  Biso   1.000  C
  H103     1.0000 0.29140  0.59160  0.12270  Biso   1.000  H
  H104     1.0000 0.31260  0.57270  0.19890  Biso   1.000  H
  H105     1.0000 0.33120  0.53870  0.15270  Biso   1.000  H
  C131     1.0000 0.22910  0.51760  0.10150  Biso   1.000  C
  H106     1.0000 0.22990  0.56080  0.07910  Biso   1.000  H
  H107     1.0000 0.21230  0.48240  0.06910  Biso   1.000  H
  H108     1.0000 0.21580  0.52680  0.13060  Biso   1.000  H
  H109     1.0000 0.43000  0.17800  0.52700  Biso   1.000  H
  H110     1.0000 0.94000  0.88300  0.87200  Biso   1.000  H
  C132     1.0000 0.54320  0.08240  0.69770  Biso   1.000  C
  C133     1.0000 0.50420  0.10480  0.83740  Biso   1.000  C
  C134     1.0000 0.51110  0.21520  0.62700  Biso   1.000  C
  C135     1.0000 0.55640  0.19910  0.66480  Biso   1.000  C
  H111     1.0000 0.55310  0.04140  0.72350  Biso   1.000  H
  H112     1.0000 0.52550  0.08610  0.82640  Biso   1.000  H
  H113     1.0000 0.50040  0.26120  0.61490  Biso   1.000  H
  H114     1.0000 0.57470  0.23880  0.67710  Biso   1.000  H
  O50      1.0000 0.63500  0.07030  0.76290  Biso   1.000  O
  O51      1.0000 0.64600  0.17560  0.74050  Biso   1.000  O
  Cd10     1.0000 0.21230  0.62421  0.79885  Biso   1.000  Cd
  Cd11     1.0000 0.67522  0.56246  0.54820  Biso   1.000  Cd
  Cd12     1.0000 0.82454  0.85703  0.31158  Biso   1.000  Cd
  O52      1.0000 0.14300  0.64330  0.77930  Biso   1.000  O
  O53      1.0000 0.14970  0.63210  0.68780  Biso   1.000  O
  O54      1.0000 0.72049  0.59790  0.50630  Biso   1.000  O
  O55      1.0000 0.77521  0.56380  0.60320  Biso   1.000  O
  O56      1.0000 0.81503  0.82320  0.40510  Biso   1.000  O
  O57      1.0000 0.74613  0.78330  0.37100  Biso   1.000  O
  O58      1.0000 0.61860  0.43910  0.07600  Biso   1.000  O
  O59      1.0000 0.60520  0.34170  0.12540  Biso   1.000  O
  O60      1.0000 0.28485  0.55110  0.83510  Biso   1.000  O
  O61      1.0000 0.22015  0.51340  0.76040  Biso   1.000  O
  O62      1.0000 0.19772  0.25430  0.72510  Biso   1.000  O
  O63      1.0000 0.25361  0.18030  0.75860  Biso   1.000  O
  O64      1.0000 0.62101  0.60070  0.44830  Biso   1.000  O
  O65      1.0000 0.66970  0.44770  0.52030  Biso   1.000  O
  O66      1.0000 0.81810  0.92840  0.22910  Biso   1.000  O
  N16      1.0000 0.91110  0.65560  0.59050  Biso   1.000  N
  N17      1.0000 0.38711  0.34150  0.87850  Biso   1.000  N
  N18      1.0000 0.60090  0.66420  0.35160  Biso   1.000  N
  N19      1.0000 0.68850  0.32290  0.52970  Biso   1.000  N
  N20      1.0000 0.77320  0.99190  0.14020  Biso   1.000  N
  C136     1.0000 0.12550  0.63480  0.72450  Biso   1.000  C
  C137     1.0000 0.05090  0.63770  0.71050  Biso   1.000  C
  H115     1.0000 0.06270  0.63010  0.75630  Biso   1.000  H
  C138     1.0000 0.07610  0.64060  0.68440  Biso   1.000  C
  C139     1.0000 0.00540  0.64530  0.67430  Biso   1.000  C
  H116     1.0000 0.98840  0.64120  0.69720  Biso   1.000  H
  C140     1.0000 0.98560  0.65770  0.61060  Biso   1.000  C
  C141     1.0000 0.01330  0.65950  0.57430  Biso   1.000  C
  H117     1.0000 0.00030  0.66380  0.52800  Biso   1.000  H
  C142     1.0000 0.93780  0.66800  0.57260  Biso   1.000  C
  C143     1.0000 0.05840  0.65470  0.60970  Biso   1.000  C
  H118     1.0000 0.07680  0.65980  0.58930  Biso   1.000  H
  C144     1.0000 0.76050  0.59700  0.54790  Biso   1.000  C
  C145     1.0000 0.79130  0.63710  0.52970  Biso   1.000  C
  C146     1.0000 0.77490  0.68480  0.47680  Biso   1.000  C
  H119     1.0000 0.74480  0.68990  0.45150  Biso   1.000  H
  C147     1.0000 0.80380  0.72530  0.46140  Biso   1.000  C
  C148     1.0000 0.84930  0.71580  0.49820  Biso   1.000  C
  H120     1.0000 0.86850  0.74180  0.48740  Biso   1.000  H
  C149     1.0000 0.86590  0.66650  0.55190  Biso   1.000  C
  C150     1.0000 0.83690  0.62940  0.56750  Biso   1.000  C
  H121     1.0000 0.84770  0.59850  0.60390  Biso   1.000  H
  C151     1.0000 0.78650  0.78060  0.40820  Biso   1.000  C
  C152     1.0000 0.59450  0.38940  0.08110  Biso   1.000  C
  C153     1.0000 0.54750  0.38750  0.02670  Biso   1.000  C
  C154     1.0000 0.53290  0.43500  0.97590  Biso   1.000  C
  H122     1.0000 0.55240  0.46890  0.97450  Biso   1.000  H
  C155     1.0000 0.48910  0.43560  0.92440  Biso   1.000  C
  H123     1.0000 0.48000  0.46880  0.89000  Biso   1.000  H
  C156     1.0000 0.46060  0.38490  0.92750  Biso   1.000  C
  C157     1.0000 0.47590  0.33720  0.97900  Biso   1.000  C
  H124     1.0000 0.45670  0.30360  0.98180  Biso   1.000  H
  C158     1.0000 0.51940  0.33740  0.02760  Biso   1.000  C
  H125     1.0000 0.52910  0.30270  0.06070  Biso   1.000  H
  C159     1.0000 0.41390  0.38680  0.87700  Biso   1.000  C
  C160     1.0000 0.25970  0.50200  0.79680  Biso   1.000  C
  C161     1.0000 0.27870  0.43090  0.79840  Biso   1.000  C
  C162     1.0000 0.25220  0.37300  0.77220  Biso   1.000  C
  H126     1.0000 0.22210  0.37970  0.74930  Biso   1.000  H
  C163     1.0000 0.26890  0.30480  0.77860  Biso   1.000  C
  C164     1.0000 0.31380  0.29450  0.81240  Biso   1.000  C
  H127     1.0000 0.32540  0.24870  0.81780  Biso   1.000  H
  C165     1.0000 0.34160  0.35310  0.83820  Biso   1.000  C
  C166     1.0000 0.32340  0.42120  0.83110  Biso   1.000  C
  H128     1.0000 0.34180  0.46040  0.84870  Biso   1.000  H
  C167     1.0000 0.23790  0.24330  0.75290  Biso   1.000  C
  C168     1.0000 0.63010  0.63780  0.40980  Biso   1.000  C
  C169     1.0000 0.55340  0.65270  0.32560  Biso   1.000  C
  H129     1.0000 0.53840  0.67630  0.28330  Biso   1.000  H
  H130     1.0000 0.54370  0.67180  0.35650  Biso   1.000  H
  H131     1.0000 0.54730  0.60250  0.32000  Biso   1.000  H
  C170     1.0000 0.61400  0.70830  0.30940  Biso   1.000  C
  H132     1.0000 0.58840  0.72250  0.27010  Biso   1.000  H
  H133     1.0000 0.63310  0.68140  0.29670  Biso   1.000  H
  H134     1.0000 0.62910  0.74990  0.33380  Biso   1.000  H
  C171     1.0000 0.69690  0.39860  0.54360  Biso   1.000  C
  C172     1.0000 0.64220  0.30420  0.50020  Biso   1.000  C
  H135     1.0000 0.63910  0.25330  0.49550  Biso   1.000  H
  H136     1.0000 0.62730  0.32600  0.45700  Biso   1.000  H
  H137     1.0000 0.62960  0.32070  0.52850  Biso   1.000  H
  C173     1.0000 0.72920  0.28200  0.55890  Biso   1.000  C
  H138     1.0000 0.75360  0.31390  0.57950  Biso   1.000  H
  H139     1.0000 0.73220  0.25530  0.52450  Biso   1.000  H
  H140     1.0000 0.72860  0.24980  0.59180  Biso   1.000  H
  C174     1.0000 0.78510  0.93270  0.18090  Biso   1.000  C
  C175     1.0000 0.80510  0.05460  0.15500  Biso   1.000  C
  H141     1.0000 0.79140  0.09160  0.12270  Biso   1.000  H
  H142     1.0000 0.81260  0.07270  0.19890  Biso   1.000  H
  H143     1.0000 0.83120  0.03870  0.15270  Biso   1.000  H
  C176     1.0000 0.72910  0.01760  0.10150  Biso   1.000  C
  H144     1.0000 0.72990  0.06080  0.07910  Biso   1.000  H
  H145     1.0000 0.71230  0.98240  0.06910  Biso   1.000  H
  H146     1.0000 0.71580  0.02680  0.13060  Biso   1.000  H
  H147     1.0000 0.93000  0.67800  0.52700  Biso   1.000  H
  H148     1.0000 0.44000  0.38300  0.87200  Biso   1.000  H
  C177     1.0000 0.04320  0.58240  0.69770  Biso   1.000  C
  C178     1.0000 0.00420  0.60480  0.83740  Biso   1.000  C
  C179     1.0000 0.01110  0.71520  0.62700  Biso   1.000  C
  C180     1.0000 0.05640  0.69910  0.66480  Biso   1.000  C
  H149     1.0000 0.05310  0.54140  0.72350  Biso   1.000  H
  H150     1.0000 0.02550  0.58610  0.82640  Biso   1.000  H
  H151     1.0000 0.00040  0.76120  0.61490  Biso   1.000  H
  H152     1.0000 0.07470  0.73880  0.67710  Biso   1.000  H
  O67      1.0000 0.13500  0.57030  0.76290  Biso   1.000  O
  O68      1.0000 0.14600  0.67560  0.74050  Biso   1.000  O
  Cd13     1.0000 0.71230  0.87579  0.29885  Biso   1.000  Cd
  Cd14     1.0000 0.17522  0.93754  0.04820  Biso   1.000  Cd
  Cd15     1.0000 0.32454  0.64297  0.81158  Biso   1.000  Cd
  O69      1.0000 0.64300  0.85670  0.27930  Biso   1.000  O
  O70      1.0000 0.64970  0.86790  0.18780  Biso   1.000  O
  O71      1.0000 0.22049  0.90210  0.00630  Biso   1.000  O
  O72      1.0000 0.27521  0.93620  0.10320  Biso   1.000  O
  O73      1.0000 0.31503  0.67680  0.90510  Biso   1.000  O
  O74      1.0000 0.24613  0.71670  0.87100  Biso   1.000  O
  O75      1.0000 0.11860  0.06090  0.57600  Biso   1.000  O
  O76      1.0000 0.10520  0.15830  0.62540  Biso   1.000  O
  O77      1.0000 0.78485  0.94890  0.33510  Biso   1.000  O
  O78      1.0000 0.72015  0.98660  0.26040  Biso   1.000  O
  O79      1.0000 0.69772  0.24570  0.22510  Biso   1.000  O
  O80      1.0000 0.75361  0.31970  0.25860  Biso   1.000  O
  O81      1.0000 0.12101  0.89930  0.94830  Biso   1.000  O
  O82      1.0000 0.16970  0.05230  0.02030  Biso   1.000  O
  O83      1.0000 0.31810  0.57160  0.72910  Biso   1.000  O
  N21      1.0000 0.41110  0.84440  0.09050  Biso   1.000  N
  N22      1.0000 0.88711  0.15850  0.37850  Biso   1.000  N
  N23      1.0000 0.10090  0.83580  0.85160  Biso   1.000  N
  N24      1.0000 0.18850  0.17710  0.02970  Biso   1.000  N
  N25      1.0000 0.27320  0.50810  0.64020  Biso   1.000  N
  C181     1.0000 0.62550  0.86520  0.22450  Biso   1.000  C
  C182     1.0000 0.55090  0.86230  0.21050  Biso   1.000  C
  H153     1.0000 0.56270  0.86990  0.25630  Biso   1.000  H
  C183     1.0000 0.57610  0.85940  0.18440  Biso   1.000  C
  C184     1.0000 0.50540  0.85470  0.17430  Biso   1.000  C
  H154     1.0000 0.48840  0.85880  0.19720  Biso   1.000  H
  C185     1.0000 0.48560  0.84230  0.11060  Biso   1.000  C
  C186     1.0000 0.51330  0.84050  0.07430  Biso   1.000  C
  H155     1.0000 0.50030  0.83620  0.02800  Biso   1.000  H
  C187     1.0000 0.43780  0.83200  0.07260  Biso   1.000  C
  C188     1.0000 0.55840  0.84530  0.10970  Biso   1.000  C
  H156     1.0000 0.57680  0.84020  0.08930  Biso   1.000  H
  C189     1.0000 0.26050  0.90300  0.04790  Biso   1.000  C
  C190     1.0000 0.29130  0.86290  0.02970  Biso   1.000  C
  C191     1.0000 0.27490  0.81520  0.97680  Biso   1.000  C
  H157     1.0000 0.24480  0.81010  0.95150  Biso   1.000  H
  C192     1.0000 0.30380  0.77470  0.96140  Biso   1.000  C
  C193     1.0000 0.34930  0.78420  0.99820  Biso   1.000  C
  H158     1.0000 0.36850  0.75820  0.98740  Biso   1.000  H
  C194     1.0000 0.36590  0.83350  0.05190  Biso   1.000  C
  C195     1.0000 0.33690  0.87060  0.06750  Biso   1.000  C
  H159     1.0000 0.34770  0.90150  0.10390  Biso   1.000  H
  C196     1.0000 0.28650  0.71940  0.90820  Biso   1.000  C
  C197     1.0000 0.09450  0.11060  0.58110  Biso   1.000  C
  C198     1.0000 0.04750  0.11250  0.52670  Biso   1.000  C
  C199     1.0000 0.03290  0.06500  0.47590  Biso   1.000  C
  H160     1.0000 0.05240  0.03110  0.47450  Biso   1.000  H
  C200     1.0000 0.98910  0.06440  0.42440  Biso   1.000  C
  H161     1.0000 0.98000  0.03120  0.39000  Biso   1.000  H
  C201     1.0000 0.96060  0.11510  0.42750  Biso   1.000  C
  C202     1.0000 0.97590  0.16280  0.47900  Biso   1.000  C
  H162     1.0000 0.95670  0.19640  0.48180  Biso   1.000  H
  C203     1.0000 0.01940  0.16260  0.52760  Biso   1.000  C
  H163     1.0000 0.02910  0.19730  0.56070  Biso   1.000  H
  C204     1.0000 0.91390  0.11320  0.37700  Biso   1.000  C
  C205     1.0000 0.75970  0.99800  0.29680  Biso   1.000  C
  C206     1.0000 0.77870  0.06910  0.29840  Biso   1.000  C
  C207     1.0000 0.75220  0.12700  0.27220  Biso   1.000  C
  H164     1.0000 0.72210  0.12030  0.24930  Biso   1.000  H
  C208     1.0000 0.76890  0.19520  0.27860  Biso   1.000  C
  C209     1.0000 0.81380  0.20550  0.31240  Biso   1.000  C
  H165     1.0000 0.82540  0.25130  0.31780  Biso   1.000  H
  C210     1.0000 0.84160  0.14690  0.33820  Biso   1.000  C
  C211     1.0000 0.82340  0.07880  0.33110  Biso   1.000  C
  H166     1.0000 0.84180  0.03960  0.34870  Biso   1.000  H
  C212     1.0000 0.73790  0.25670  0.25290  Biso   1.000  C
  C213     1.0000 0.13010  0.86220  0.90980  Biso   1.000  C
  C214     1.0000 0.05340  0.84730  0.82560  Biso   1.000  C
  H167     1.0000 0.03840  0.82370  0.78330  Biso   1.000  H
  H168     1.0000 0.04370  0.82820  0.85650  Biso   1.000  H
  H169     1.0000 0.04730  0.89750  0.82000  Biso   1.000  H
  C215     1.0000 0.11400  0.79170  0.80940  Biso   1.000  C
  H170     1.0000 0.08840  0.77750  0.77010  Biso   1.000  H
  H171     1.0000 0.13310  0.81860  0.79670  Biso   1.000  H
  H172     1.0000 0.12910  0.75010  0.83380  Biso   1.000  H
  C216     1.0000 0.19690  0.10140  0.04360  Biso   1.000  C
  C217     1.0000 0.14220  0.19580  0.00020  Biso   1.000  C
  H173     1.0000 0.13910  0.24670  0.99550  Biso   1.000  H
  H174     1.0000 0.12730  0.17400  0.95700  Biso   1.000  H
  H175     1.0000 0.12960  0.17930  0.02850  Biso   1.000  H
  C218     1.0000 0.22920  0.21800  0.05890  Biso   1.000  C
  H176     1.0000 0.25360  0.18610  0.07950  Biso   1.000  H
  H177     1.0000 0.23220  0.24470  0.02450  Biso   1.000  H
  H178     1.0000 0.22860  0.25020  0.09180  Biso   1.000  H
  C219     1.0000 0.28510  0.56730  0.68090  Biso   1.000  C
  C220     1.0000 0.30510  0.44540  0.65500  Biso   1.000  C
  H179     1.0000 0.29140  0.40840  0.62270  Biso   1.000  H
  H180     1.0000 0.31260  0.42730  0.69890  Biso   1.000  H
  H181     1.0000 0.33120  0.46130  0.65270  Biso   1.000  H
  C221     1.0000 0.22910  0.48240  0.60150  Biso   1.000  C
  H182     1.0000 0.22990  0.43920  0.57910  Biso   1.000  H
  H183     1.0000 0.21230  0.51760  0.56910  Biso   1.000  H
  H184     1.0000 0.21580  0.47320  0.63060  Biso   1.000  H
  H185     1.0000 0.43000  0.82200  0.02700  Biso   1.000  H
  H186     1.0000 0.94000  0.11700  0.37200  Biso   1.000  H
  C222     1.0000 0.54320  0.91760  0.19770  Biso   1.000  C
  C223     1.0000 0.50420  0.89520  0.33740  Biso   1.000  C
  C224     1.0000 0.51110  0.78480  0.12700  Biso   1.000  C
  C225     1.0000 0.55640  0.80090  0.16480  Biso   1.000  C
  H187     1.0000 0.55310  0.95860  0.22350  Biso   1.000  H
  H188     1.0000 0.52550  0.91390  0.32640  Biso   1.000  H
  H189     1.0000 0.50040  0.73880  0.11490  Biso   1.000  H
  H190     1.0000 0.57470  0.76120  0.17710  Biso   1.000  H
  O84      1.0000 0.63500  0.92970  0.26290  Biso   1.000  O
  O85      1.0000 0.64600  0.82440  0.24050  Biso   1.000  O
  Cd16     1.0000 0.21230  0.37579  0.29885  Biso   1.000  Cd
  Cd17     1.0000 0.67522  0.43754  0.04820  Biso   1.000  Cd
  Cd18     1.0000 0.82454  0.14297  0.81158  Biso   1.000  Cd
  O86      1.0000 0.14300  0.35670  0.27930  Biso   1.000  O
  O87      1.0000 0.14970  0.36790  0.18780  Biso   1.000  O
  O88      1.0000 0.72049  0.40210  0.00630  Biso   1.000  O
  O89      1.0000 0.77521  0.43620  0.10320  Biso   1.000  O
  O90      1.0000 0.81503  0.17680  0.90510  Biso   1.000  O
  O91      1.0000 0.74613  0.21670  0.87100  Biso   1.000  O
  O92      1.0000 0.61860  0.56090  0.57600  Biso   1.000  O
  O93      1.0000 0.60520  0.65830  0.62540  Biso   1.000  O
  O94      1.0000 0.28485  0.44890  0.33510  Biso   1.000  O
  O95      1.0000 0.22015  0.48660  0.26040  Biso   1.000  O
  O96      1.0000 0.19772  0.74570  0.22510  Biso   1.000  O
  O97      1.0000 0.25361  0.81970  0.25860  Biso   1.000  O
  O98      1.0000 0.62101  0.39930  0.94830  Biso   1.000  O
  O99      1.0000 0.66970  0.55230  0.02030  Biso   1.000  O
  O100     1.0000 0.81810  0.07160  0.72910  Biso   1.000  O
  N26      1.0000 0.91110  0.34440  0.09050  Biso   1.000  N
  N27      1.0000 0.38711  0.65850  0.37850  Biso   1.000  N
  N28      1.0000 0.60090  0.33580  0.85160  Biso   1.000  N
  N29      1.0000 0.68850  0.67710  0.02970  Biso   1.000  N
  N30      1.0000 0.77320  0.00810  0.64020  Biso   1.000  N
  C226     1.0000 0.12550  0.36520  0.22450  Biso   1.000  C
  C227     1.0000 0.05090  0.36230  0.21050  Biso   1.000  C
  H191     1.0000 0.06270  0.36990  0.25630  Biso   1.000  H
  C228     1.0000 0.07610  0.35940  0.18440  Biso   1.000  C
  C229     1.0000 0.00540  0.35470  0.17430  Biso   1.000  C
  H192     1.0000 0.98840  0.35880  0.19720  Biso   1.000  H
  C230     1.0000 0.98560  0.34230  0.11060  Biso   1.000  C
  C231     1.0000 0.01330  0.34050  0.07430  Biso   1.000  C
  H193     1.0000 0.00030  0.33620  0.02800  Biso   1.000  H
  C232     1.0000 0.93780  0.33200  0.07260  Biso   1.000  C
  C233     1.0000 0.05840  0.34530  0.10970  Biso   1.000  C
  H194     1.0000 0.07680  0.34020  0.08930  Biso   1.000  H
  C234     1.0000 0.76050  0.40300  0.04790  Biso   1.000  C
  C235     1.0000 0.79130  0.36290  0.02970  Biso   1.000  C
  C236     1.0000 0.77490  0.31520  0.97680  Biso   1.000  C
  H195     1.0000 0.74480  0.31010  0.95150  Biso   1.000  H
  C237     1.0000 0.80380  0.27470  0.96140  Biso   1.000  C
  C238     1.0000 0.84930  0.28420  0.99820  Biso   1.000  C
  H196     1.0000 0.86850  0.25820  0.98740  Biso   1.000  H
  C239     1.0000 0.86590  0.33350  0.05190  Biso   1.000  C
  C240     1.0000 0.83690  0.37060  0.06750  Biso   1.000  C
  H197     1.0000 0.84770  0.40150  0.10390  Biso   1.000  H
  C241     1.0000 0.78650  0.21940  0.90820  Biso   1.000  C
  C242     1.0000 0.59450  0.61060  0.58110  Biso   1.000  C
  C243     1.0000 0.54750  0.61250  0.52670  Biso   1.000  C
  C244     1.0000 0.53290  0.56500  0.47590  Biso   1.000  C
  H198     1.0000 0.55240  0.53110  0.47450  Biso   1.000  H
  C245     1.0000 0.48910  0.56440  0.42440  Biso   1.000  C
  H199     1.0000 0.48000  0.53120  0.39000  Biso   1.000  H
  C246     1.0000 0.46060  0.61510  0.42750  Biso   1.000  C
  C247     1.0000 0.47590  0.66280  0.47900  Biso   1.000  C
  H200     1.0000 0.45670  0.69640  0.48180  Biso   1.000  H
  C248     1.0000 0.51940  0.66260  0.52760  Biso   1.000  C
  H201     1.0000 0.52910  0.69730  0.56070  Biso   1.000  H
  C249     1.0000 0.41390  0.61320  0.37700  Biso   1.000  C
  C250     1.0000 0.25970  0.49800  0.29680  Biso   1.000  C
  C251     1.0000 0.27870  0.56910  0.29840  Biso   1.000  C
  C252     1.0000 0.25220  0.62700  0.27220  Biso   1.000  C
  H202     1.0000 0.22210  0.62030  0.24930  Biso   1.000  H
  C253     1.0000 0.26890  0.69520  0.27860  Biso   1.000  C
  C254     1.0000 0.31380  0.70550  0.31240  Biso   1.000  C
  H203     1.0000 0.32540  0.75130  0.31780  Biso   1.000  H
  C255     1.0000 0.34160  0.64690  0.33820  Biso   1.000  C
  C256     1.0000 0.32340  0.57880  0.33110  Biso   1.000  C
  H204     1.0000 0.34180  0.53960  0.34870  Biso   1.000  H
  C257     1.0000 0.23790  0.75670  0.25290  Biso   1.000  C
  C258     1.0000 0.63010  0.36220  0.90980  Biso   1.000  C
  C259     1.0000 0.55340  0.34730  0.82560  Biso   1.000  C
  H205     1.0000 0.53840  0.32370  0.78330  Biso   1.000  H
  H206     1.0000 0.54370  0.32820  0.85650  Biso   1.000  H
  H207     1.0000 0.54730  0.39750  0.82000  Biso   1.000  H
  C260     1.0000 0.61400  0.29170  0.80940  Biso   1.000  C
  H208     1.0000 0.58840  0.27750  0.77010  Biso   1.000  H
  H209     1.0000 0.63310  0.31860  0.79670  Biso   1.000  H
  H210     1.0000 0.62910  0.25010  0.83380  Biso   1.000  H
  C261     1.0000 0.69690  0.60140  0.04360  Biso   1.000  C
  C262     1.0000 0.64220  0.69580  0.00020  Biso   1.000  C
  H211     1.0000 0.63910  0.74670  0.99550  Biso   1.000  H
  H212     1.0000 0.62730  0.67400  0.95700  Biso   1.000  H
  H213     1.0000 0.62960  0.67930  0.02850  Biso   1.000  H
  C263     1.0000 0.72920  0.71800  0.05890  Biso   1.000  C
  H214     1.0000 0.75360  0.68610  0.07950  Biso   1.000  H
  H215     1.0000 0.73220  0.74470  0.02450  Biso   1.000  H
  H216     1.0000 0.72860  0.75020  0.09180  Biso   1.000  H
  C264     1.0000 0.78510  0.06730  0.68090  Biso   1.000  C
  C265     1.0000 0.80510  0.94540  0.65500  Biso   1.000  C
  H217     1.0000 0.79140  0.90840  0.62270  Biso   1.000  H
  H218     1.0000 0.81260  0.92730  0.69890  Biso   1.000  H
  H219     1.0000 0.83120  0.96130  0.65270  Biso   1.000  H
  C266     1.0000 0.72910  0.98240  0.60150  Biso   1.000  C
  H220     1.0000 0.72990  0.93920  0.57910  Biso   1.000  H
  H221     1.0000 0.71230  0.01760  0.56910  Biso   1.000  H
  H222     1.0000 0.71580  0.97320  0.63060  Biso   1.000  H
  H223     1.0000 0.93000  0.32200  0.02700  Biso   1.000  H
  H224     1.0000 0.44000  0.61700  0.37200  Biso   1.000  H
  C267     1.0000 0.04320  0.41760  0.19770  Biso   1.000  C
  C268     1.0000 0.00420  0.39520  0.33740  Biso   1.000  C
  C269     1.0000 0.01110  0.28480  0.12700  Biso   1.000  C
  C270     1.0000 0.05640  0.30090  0.16480  Biso   1.000  C
  H225     1.0000 0.05310  0.45860  0.22350  Biso   1.000  H
  H226     1.0000 0.02550  0.41390  0.32640  Biso   1.000  H
  H227     1.0000 0.00040  0.23880  0.11490  Biso   1.000  H
  H228     1.0000 0.07470  0.26120  0.17710  Biso   1.000  H
  O101     1.0000 0.13500  0.42970  0.26290  Biso   1.000  O
  O102     1.0000 0.14600  0.32440  0.24050  Biso   1.000  O
  Cd19     1.0000 0.28770  0.87579  0.20115  Biso   1.000  Cd
  Cd20     1.0000 0.82478  0.93754  0.45180  Biso   1.000  Cd
  Cd21     1.0000 0.67546  0.64297  0.68842  Biso   1.000  Cd
  O103     1.0000 0.35700  0.85670  0.22070  Biso   1.000  O
  O104     1.0000 0.35030  0.86790  0.31220  Biso   1.000  O
  O105     1.0000 0.77951  0.90210  0.49370  Biso   1.000  O
  O106     1.0000 0.72479  0.93620  0.39680  Biso   1.000  O
  O107     1.0000 0.68497  0.67680  0.59490  Biso   1.000  O
  O108     1.0000 0.75387  0.71670  0.62900  Biso   1.000  O
  O109     1.0000 0.88140  0.06090  0.92400  Biso   1.000  O
  O110     1.0000 0.89480  0.15830  0.87460  Biso   1.000  O
  O111     1.0000 0.21515  0.94890  0.16490  Biso   1.000  O
  O112     1.0000 0.27985  0.98660  0.23960  Biso   1.000  O
  O113     1.0000 0.30228  0.24570  0.27490  Biso   1.000  O
  O114     1.0000 0.24639  0.31970  0.24140  Biso   1.000  O
  O115     1.0000 0.87899  0.89930  0.55170  Biso   1.000  O
  O116     1.0000 0.83030  0.05230  0.47970  Biso   1.000  O
  O117     1.0000 0.68190  0.57160  0.77090  Biso   1.000  O
  N31      1.0000 0.58890  0.84440  0.40950  Biso   1.000  N
  N32      1.0000 0.11289  0.15850  0.12150  Biso   1.000  N
  N33      1.0000 0.89910  0.83580  0.64840  Biso   1.000  N
  N34      1.0000 0.81150  0.17710  0.47030  Biso   1.000  N
  N35      1.0000 0.72680  0.50810  0.85980  Biso   1.000  N
  C271     1.0000 0.37450  0.86520  0.27550  Biso   1.000  C
  C272     1.0000 0.44910  0.86230  0.28950  Biso   1.000  C
  H229     1.0000 0.43730  0.86990  0.24370  Biso   1.000  H
  C273     1.0000 0.42390  0.85940  0.31560  Biso   1.000  C
  C274     1.0000 0.49460  0.85470  0.32570  Biso   1.000  C
  H230     1.0000 0.51160  0.85880  0.30280  Biso   1.000  H
  C275     1.0000 0.51440  0.84230  0.38940  Biso   1.000  C
  C276     1.0000 0.48670  0.84050  0.42570  Biso   1.000  C
  H231     1.0000 0.49970  0.83620  0.47200  Biso   1.000  H
  C277     1.0000 0.56220  0.83200  0.42740  Biso   1.000  C
  C278     1.0000 0.44160  0.84530  0.39030  Biso   1.000  C
  H232     1.0000 0.42320  0.84020  0.41070  Biso   1.000  H
  C279     1.0000 0.73950  0.90300  0.45210  Biso   1.000  C
  C280     1.0000 0.70870  0.86290  0.47030  Biso   1.000  C
  C281     1.0000 0.72510  0.81520  0.52320  Biso   1.000  C
  H233     1.0000 0.75520  0.81010  0.54850  Biso   1.000  H
  C282     1.0000 0.69620  0.77470  0.53860  Biso   1.000  C
  C283     1.0000 0.65070  0.78420  0.50180  Biso   1.000  C
  H234     1.0000 0.63150  0.75820  0.51260  Biso   1.000  H
  C284     1.0000 0.63410  0.83350  0.44810  Biso   1.000  C
  C285     1.0000 0.66310  0.87060  0.43250  Biso   1.000  C
  H235     1.0000 0.65230  0.90150  0.39610  Biso   1.000  H
  C286     1.0000 0.71350  0.71940  0.59180  Biso   1.000  C
  C287     1.0000 0.90550  0.11060  0.91890  Biso   1.000  C
  C288     1.0000 0.95250  0.11250  0.97330  Biso   1.000  C
  C289     1.0000 0.96710  0.06500  0.02410  Biso   1.000  C
  H236     1.0000 0.94760  0.03110  0.02550  Biso   1.000  H
  C290     1.0000 0.01090  0.06440  0.07560  Biso   1.000  C
  H237     1.0000 0.02000  0.03120  0.11000  Biso   1.000  H
  C291     1.0000 0.03940  0.11510  0.07250  Biso   1.000  C
  C292     1.0000 0.02410  0.16280  0.02100  Biso   1.000  C
  H238     1.0000 0.04330  0.19640  0.01820  Biso   1.000  H
  C293     1.0000 0.98060  0.16260  0.97240  Biso   1.000  C
  H239     1.0000 0.97090  0.19730  0.93930  Biso   1.000  H
  C294     1.0000 0.08610  0.11320  0.12300  Biso   1.000  C
  C295     1.0000 0.24030  0.99800  0.20320  Biso   1.000  C
  C296     1.0000 0.22130  0.06910  0.20160  Biso   1.000  C
  C297     1.0000 0.24780  0.12700  0.22780  Biso   1.000  C
  H240     1.0000 0.27790  0.12030  0.25070  Biso   1.000  H
  C298     1.0000 0.23110  0.19520  0.22140  Biso   1.000  C
  C299     1.0000 0.18620  0.20550  0.18760  Biso   1.000  C
  H241     1.0000 0.17460  0.25130  0.18220  Biso   1.000  H
  C300     1.0000 0.15840  0.14690  0.16180  Biso   1.000  C
  C301     1.0000 0.17660  0.07880  0.16890  Biso   1.000  C
  H242     1.0000 0.15820  0.03960  0.15130  Biso   1.000  H
  C302     1.0000 0.26210  0.25670  0.24710  Biso   1.000  C
  C303     1.0000 0.86990  0.86220  0.59020  Biso   1.000  C
  C304     1.0000 0.94660  0.84730  0.67440  Biso   1.000  C
  H243     1.0000 0.96160  0.82370  0.71670  Biso   1.000  H
  H244     1.0000 0.95630  0.82820  0.64350  Biso   1.000  H
  H245     1.0000 0.95270  0.89750  0.68000  Biso   1.000  H
  C305     1.0000 0.88600  0.79170  0.69060  Biso   1.000  C
  H246     1.0000 0.91160  0.77750  0.72990  Biso   1.000  H
  H247     1.0000 0.86690  0.81860  0.70330  Biso   1.000  H
  H248     1.0000 0.87090  0.75010  0.66620  Biso   1.000  H
  C306     1.0000 0.80310  0.10140  0.45640  Biso   1.000  C
  C307     1.0000 0.85780  0.19580  0.49980  Biso   1.000  C
  H249     1.0000 0.86090  0.24670  0.50450  Biso   1.000  H
  H250     1.0000 0.87270  0.17400  0.54300  Biso   1.000  H
  H251     1.0000 0.87040  0.17930  0.47150  Biso   1.000  H
  C308     1.0000 0.77080  0.21800  0.44110  Biso   1.000  C
  H252     1.0000 0.74640  0.18610  0.42050  Biso   1.000  H
  H253     1.0000 0.76780  0.24470  0.47550  Biso   1.000  H
  H254     1.0000 0.77140  0.25020  0.40820  Biso   1.000  H
  C309     1.0000 0.71490  0.56730  0.81910  Biso   1.000  C
  C310     1.0000 0.69490  0.44540  0.84500  Biso   1.000  C
  H255     1.0000 0.70860  0.40840  0.87730  Biso   1.000  H
  H256     1.0000 0.68740  0.42730  0.80110  Biso   1.000  H
  H257     1.0000 0.66880  0.46130  0.84730  Biso   1.000  H
  C311     1.0000 0.77090  0.48240  0.89850  Biso   1.000  C
  H258     1.0000 0.77010  0.43920  0.92090  Biso   1.000  H
  H259     1.0000 0.78770  0.51760  0.93090  Biso   1.000  H
  H260     1.0000 0.78420  0.47320  0.86940  Biso   1.000  H
  H261     1.0000 0.57000  0.82200  0.47300  Biso   1.000  H
  H262     1.0000 0.06000  0.11700  0.12800  Biso   1.000  H
  C312     1.0000 0.45680  0.91760  0.30230  Biso   1.000  C
  C313     1.0000 0.49580  0.89520  0.16260  Biso   1.000  C
  C314     1.0000 0.48890  0.78480  0.37300  Biso   1.000  C
  C315     1.0000 0.44360  0.80090  0.33520  Biso   1.000  C
  H263     1.0000 0.44690  0.95860  0.27650  Biso   1.000  H
  H264     1.0000 0.47450  0.91390  0.17360  Biso   1.000  H
  H265     1.0000 0.49960  0.73880  0.38510  Biso   1.000  H
  H266     1.0000 0.42530  0.76120  0.32290  Biso   1.000  H
  O118     1.0000 0.36500  0.92970  0.23710  Biso   1.000  O
  O119     1.0000 0.35400  0.82440  0.25950  Biso   1.000  O
  Cd22     1.0000 0.78770  0.37579  0.20115  Biso   1.000  Cd
  Cd23     1.0000 0.32478  0.43754  0.45180  Biso   1.000  Cd
  Cd24     1.0000 0.17546  0.14297  0.68842  Biso   1.000  Cd
  O120     1.0000 0.85700  0.35670  0.22070  Biso   1.000  O
  O121     1.0000 0.85030  0.36790  0.31220  Biso   1.000  O
  O122     1.0000 0.27951  0.40210  0.49370  Biso   1.000  O
  O123     1.0000 0.22479  0.43620  0.39680  Biso   1.000  O
  O124     1.0000 0.18497  0.17680  0.59490  Biso   1.000  O
  O125     1.0000 0.25387  0.21670  0.62900  Biso   1.000  O
  O126     1.0000 0.38140  0.56090  0.92400  Biso   1.000  O
  O127     1.0000 0.39480  0.65830  0.87460  Biso   1.000  O
  O128     1.0000 0.71515  0.44890  0.16490  Biso   1.000  O
  O129     1.0000 0.77985  0.48660  0.23960  Biso   1.000  O
  O130     1.0000 0.80228  0.74570  0.27490  Biso   1.000  O
  O131     1.0000 0.74639  0.81970  0.24140  Biso   1.000  O
  O132     1.0000 0.37899  0.39930  0.55170  Biso   1.000  O
  O133     1.0000 0.33030  0.55230  0.47970  Biso   1.000  O
  O134     1.0000 0.18190  0.07160  0.77090  Biso   1.000  O
  N36      1.0000 0.08890  0.34440  0.40950  Biso   1.000  N
  N37      1.0000 0.61289  0.65850  0.12150  Biso   1.000  N
  N38      1.0000 0.39910  0.33580  0.64840  Biso   1.000  N
  N39      1.0000 0.31150  0.67710  0.47030  Biso   1.000  N
  N40      1.0000 0.22680  0.00810  0.85980  Biso   1.000  N
  C316     1.0000 0.87450  0.36520  0.27550  Biso   1.000  C
  C317     1.0000 0.94910  0.36230  0.28950  Biso   1.000  C
  H267     1.0000 0.93730  0.36990  0.24370  Biso   1.000  H
  C318     1.0000 0.92390  0.35940  0.31560  Biso   1.000  C
  C319     1.0000 0.99460  0.35470  0.32570  Biso   1.000  C
  H268     1.0000 0.01160  0.35880  0.30280  Biso   1.000  H
  C320     1.0000 0.01440  0.34230  0.38940  Biso   1.000  C
  C321     1.0000 0.98670  0.34050  0.42570  Biso   1.000  C
  H269     1.0000 0.99970  0.33620  0.47200  Biso   1.000  H
  C322     1.0000 0.06220  0.33200  0.42740  Biso   1.000  C
  C323     1.0000 0.94160  0.34530  0.39030  Biso   1.000  C
  H270     1.0000 0.92320  0.34020  0.41070  Biso   1.000  H
  C324     1.0000 0.23950  0.40300  0.45210  Biso   1.000  C
  C325     1.0000 0.20870  0.36290  0.47030  Biso   1.000  C
  C326     1.0000 0.22510  0.31520  0.52320  Biso   1.000  C
  H271     1.0000 0.25520  0.31010  0.54850  Biso   1.000  H
  C327     1.0000 0.19620  0.27470  0.53860  Biso   1.000  C
  C328     1.0000 0.15070  0.28420  0.50180  Biso   1.000  C
  H272     1.0000 0.13150  0.25820  0.51260  Biso   1.000  H
  C329     1.0000 0.13410  0.33350  0.44810  Biso   1.000  C
  C330     1.0000 0.16310  0.37060  0.43250  Biso   1.000  C
  H273     1.0000 0.15230  0.40150  0.39610  Biso   1.000  H
  C331     1.0000 0.21350  0.21940  0.59180  Biso   1.000  C
  C332     1.0000 0.40550  0.61060  0.91890  Biso   1.000  C
  C333     1.0000 0.45250  0.61250  0.97330  Biso   1.000  C
  C334     1.0000 0.46710  0.56500  0.02410  Biso   1.000  C
  H274     1.0000 0.44760  0.53110  0.02550  Biso   1.000  H
  C335     1.0000 0.51090  0.56440  0.07560  Biso   1.000  C
  H275     1.0000 0.52000  0.53120  0.11000  Biso   1.000  H
  C336     1.0000 0.53940  0.61510  0.07250  Biso   1.000  C
  C337     1.0000 0.52410  0.66280  0.02100  Biso   1.000  C
  H276     1.0000 0.54330  0.69640  0.01820  Biso   1.000  H
  C338     1.0000 0.48060  0.66260  0.97240  Biso   1.000  C
  H277     1.0000 0.47090  0.69730  0.93930  Biso   1.000  H
  C339     1.0000 0.58610  0.61320  0.12300  Biso   1.000  C
  C340     1.0000 0.74030  0.49800  0.20320  Biso   1.000  C
  C341     1.0000 0.72130  0.56910  0.20160  Biso   1.000  C
  C342     1.0000 0.74780  0.62700  0.22780  Biso   1.000  C
  H278     1.0000 0.77790  0.62030  0.25070  Biso   1.000  H
  C343     1.0000 0.73110  0.69520  0.22140  Biso   1.000  C
  C344     1.0000 0.68620  0.70550  0.18760  Biso   1.000  C
  H279     1.0000 0.67460  0.75130  0.18220  Biso   1.000  H
  C345     1.0000 0.65840  0.64690  0.16180  Biso   1.000  C
  C346     1.0000 0.67660  0.57880  0.16890  Biso   1.000  C
  H280     1.0000 0.65820  0.53960  0.15130  Biso   1.000  H
  C347     1.0000 0.76210  0.75670  0.24710  Biso   1.000  C
  C348     1.0000 0.36990  0.36220  0.59020  Biso   1.000  C
  C349     1.0000 0.44660  0.34730  0.67440  Biso   1.000  C
  H281     1.0000 0.46160  0.32370  0.71670  Biso   1.000  H
  H282     1.0000 0.45630  0.32820  0.64350  Biso   1.000  H
  H283     1.0000 0.45270  0.39750  0.68000  Biso   1.000  H
  C350     1.0000 0.38600  0.29170  0.69060  Biso   1.000  C
  H284     1.0000 0.41160  0.27750  0.72990  Biso   1.000  H
  H285     1.0000 0.36690  0.31860  0.70330  Biso   1.000  H
  H286     1.0000 0.37090  0.25010  0.66620  Biso   1.000  H
  C351     1.0000 0.30310  0.60140  0.45640  Biso   1.000  C
  C352     1.0000 0.35780  0.69580  0.49980  Biso   1.000  C
  H287     1.0000 0.36090  0.74670  0.50450  Biso   1.000  H
  H288     1.0000 0.37270  0.67400  0.54300  Biso   1.000  H
  H289     1.0000 0.37040  0.67930  0.47150  Biso   1.000  H
  C353     1.0000 0.27080  0.71800  0.44110  Biso   1.000  C
  H290     1.0000 0.24640  0.68610  0.42050  Biso   1.000  H
  H291     1.0000 0.26780  0.74470  0.47550  Biso   1.000  H
  H292     1.0000 0.27140  0.75020  0.40820  Biso   1.000  H
  C354     1.0000 0.21490  0.06730  0.81910  Biso   1.000  C
  C355     1.0000 0.19490  0.94540  0.84500  Biso   1.000  C
  H293     1.0000 0.20860  0.90840  0.87730  Biso   1.000  H
  H294     1.0000 0.18740  0.92730  0.80110  Biso   1.000  H
  H295     1.0000 0.16880  0.96130  0.84730  Biso   1.000  H
  C356     1.0000 0.27090  0.98240  0.89850  Biso   1.000  C
  H296     1.0000 0.27010  0.93920  0.92090  Biso   1.000  H
  H297     1.0000 0.28770  0.01760  0.93090  Biso   1.000  H
  H298     1.0000 0.28420  0.97320  0.86940  Biso   1.000  H
  H299     1.0000 0.07000  0.32200  0.47300  Biso   1.000  H
  H300     1.0000 0.56000  0.61700  0.12800  Biso   1.000  H
  C357     1.0000 0.95680  0.41760  0.30230  Biso   1.000  C
  C358     1.0000 0.99580  0.39520  0.16260  Biso   1.000  C
  C359     1.0000 0.98890  0.28480  0.37300  Biso   1.000  C
  C360     1.0000 0.94360  0.30090  0.33520  Biso   1.000  C
  H301     1.0000 0.94690  0.45860  0.27650  Biso   1.000  H
  H302     1.0000 0.97450  0.41390  0.17360  Biso   1.000  H
  H303     1.0000 0.99960  0.23880  0.38510  Biso   1.000  H
  H304     1.0000 0.92530  0.26120  0.32290  Biso   1.000  H
  O135     1.0000 0.86500  0.42970  0.23710  Biso   1.000  O
  O136     1.0000 0.85400  0.32440  0.25950  Biso   1.000  O
