data_image0
_cell_length_a       34.628
_cell_length_b       18.2216
_cell_length_c       23.1357
_cell_angle_alpha    90
_cell_angle_beta     118.404
_cell_angle_gamma    90

_symmetry_space_group_name_H-M    "P 1"
_symmetry_int_tables_number       1

loop_
  _symmetry_equiv_pos_as_xyz
  'x, y, z'

loop_
  _atom_site_label
  _atom_site_occupancy
  _atom_site_fract_x
  _atom_site_fract_y
  _atom_site_fract_z
  _atom_site_thermal_displace_type
  _atom_site_B_iso_or_equiv
  _atom_site_type_symbol
  Cd1      1.0000 0.71000  0.10581  0.80913  Biso   1.000  Cd
  Cd2      1.0000 0.32140  0.38197  0.32400  Biso   1.000  Cd
  Cd3      1.0000 0.32262  0.44934  0.46342  Biso   1.000  Cd
  C1       1.0000 0.62110  0.10910  0.74590  Biso   1.000  C
  C2       1.0000 0.57130  0.10460  0.71780  Biso   1.000  C
  C3       1.0000 0.55060  0.16150  0.68110  Biso   1.000  C
  H1       1.0000 0.56780  0.20050  0.68070  Biso   1.000  H
  C4       1.0000 0.50660  0.16840  0.64390  Biso   1.000  C
  H2       1.0000 0.49370  0.21010  0.61890  Biso   1.000  H
  C5       1.0000 0.48100  0.10640  0.64580  Biso   1.000  C
  C6       1.0000 0.50140  0.05060  0.68200  Biso   1.000  C
  H3       1.0000 0.48530  0.01050  0.68360  Biso   1.000  H
  C7       1.0000 0.54640  0.04910  0.71810  Biso   1.000  C
  H4       1.0000 0.55990  0.00800  0.74360  Biso   1.000  H
  C8       1.0000 0.43300  0.11260  0.61160  Biso   1.000  C
  C9       1.0000 0.28540  0.29100  0.41040  Biso   1.000  C
  C10      1.0000 0.30280  0.23110  0.46100  Biso   1.000  C
  C11      1.0000 0.34780  0.22020  0.49910  Biso   1.000  C
  H5       1.0000 0.36690  0.24930  0.49110  Biso   1.000  H
  C12      1.0000 0.36520  0.16880  0.54770  Biso   1.000  C
  C13      1.0000 0.33580  0.12760  0.56120  Biso   1.000  C
  H6       1.0000 0.34650  0.09420  0.59580  Biso   1.000  H
  C14      1.0000 0.29100  0.13730  0.52270  Biso   1.000  C
  C15      1.0000 0.27440  0.18790  0.47340  Biso   1.000  C
  H7       1.0000 0.24410  0.19350  0.44820  Biso   1.000  H
  C16      1.0000 0.26050  0.09200  0.53930  Biso   1.000  C
  C17      1.0000 0.09590  0.91250  0.06380  Biso   1.000  C
  C18      1.0000 0.04800  0.90250  0.01500  Biso   1.000  C
  C19      1.0000 0.02300  0.84470  0.02460  Biso   1.000  C
  H8       1.0000 0.03620  0.81510  0.06170  Biso   1.000  H
  C20      1.0000 0.98150  0.83360  0.98090  Biso   1.000  C
  H9       1.0000 0.96610  0.79410  0.98540  Biso   1.000  H
  C21      1.0000 0.96170  0.88020  0.92980  Biso   1.000  C
  C22      1.0000 0.98490  0.93630  0.92160  Biso   1.000  C
  H10      1.0000 0.97150  0.96740  0.88560  Biso   1.000  H
  C23      1.0000 0.02690  0.94590  0.96570  Biso   1.000  C
  H11      1.0000 0.04170  0.98590  0.96070  Biso   1.000  H
  C24      1.0000 0.91430  0.87570  0.88690  Biso   1.000  C
  C25      1.0000 0.75750  0.97940  0.81400  Biso   1.000  C
  C26      1.0000 0.77950  0.90780  0.81420  Biso   1.000  C
  C27      1.0000 0.75270  0.84670  0.78420  Biso   1.000  C
  H12      1.0000 0.72230  0.85140  0.76220  Biso   1.000  H
  C28      1.0000 0.77240  0.77840  0.78790  Biso   1.000  C
  C29      1.0000 0.81840  0.77210  0.81930  Biso   1.000  C
  H13      1.0000 0.83140  0.72690  0.82080  Biso   1.000  H
  C30      1.0000 0.84430  0.83220  0.84790  Biso   1.000  C
  C31      1.0000 0.82410  0.90040  0.84420  Biso   1.000  C
  H14      1.0000 0.84160  0.94140  0.86270  Biso   1.000  H
  C32      1.0000 0.74370  0.71260  0.75560  Biso   1.000  C
  C33      1.0000 0.27790  0.47340  0.20310  Biso   1.000  C
  C34      1.0000 0.21280  0.55620  0.13060  Biso   1.000  C
  H15      1.0000 0.20840  0.60380  0.11060  Biso   1.000  H
  H16      1.0000 0.20040  0.55530  0.15980  Biso   1.000  H
  H17      1.0000 0.19880  0.51970  0.09700  Biso   1.000  H
  C35      1.0000 0.29580  0.58380  0.17070  Biso   1.000  C
  H18      1.0000 0.28490  0.62880  0.14690  Biso   1.000  H
  H19      1.0000 0.31070  0.55640  0.15180  Biso   1.000  H
  H20      1.0000 0.31600  0.59470  0.21590  Biso   1.000  H
  C36      1.0000 0.36840  0.36480  0.59160  Biso   1.000  C
  C37      1.0000 0.44660  0.34260  0.67660  Biso   1.000  C
  H21      1.0000 0.46300  0.31540  0.71650  Biso   1.000  H
  H22      1.0000 0.45330  0.39390  0.68500  Biso   1.000  H
  H23      1.0000 0.45450  0.32620  0.64410  Biso   1.000  H
  C38      1.0000 0.38660  0.28150  0.68870  Biso   1.000  C
  H24      1.0000 0.41210  0.26370  0.72690  Biso   1.000  H
  H25      1.0000 0.37090  0.24090  0.66110  Biso   1.000  H
  H26      1.0000 0.36790  0.30710  0.70200  Biso   1.000  H
  C39      1.0000 0.36460  0.59830  0.51810  Biso   1.000  C
  C40      1.0000 0.32430  0.71290  0.48990  Biso   1.000  C
  H27      1.0000 0.32790  0.76500  0.49660  Biso   1.000  H
  H28      1.0000 0.30620  0.69470  0.50780  Biso   1.000  H
  H29      1.0000 0.31070  0.70240  0.44380  Biso   1.000  H
  C41      1.0000 0.40860  0.70600  0.57340  Biso   1.000  C
  H30      1.0000 0.40680  0.75870  0.57530  Biso   1.000  H
  H31      1.0000 0.43160  0.69330  0.56330  Biso   1.000  H
  H32      1.0000 0.41490  0.68560  0.61510  Biso   1.000  H
  N1       1.0000 0.41060  0.16040  0.58790  Biso   1.000  N
  N2       1.0000 0.88890  0.82460  0.88840  Biso   1.000  N
  N3       1.0000 0.25950  0.54090  0.16720  Biso   1.000  N
  N4       1.0000 0.40010  0.33120  0.65260  Biso   1.000  N
  N5       1.0000 0.36710  0.67760  0.52280  Biso   1.000  N
  O1       1.0000 0.64610  0.11290  0.70200  Biso   1.000  O
  O2       1.0000 0.63520  0.04360  0.78220  Biso   1.000  O
  O3       1.0000 0.24502  0.29330  0.37360  Biso   1.000  O
  O4       1.0000 0.31396  0.33580  0.41100  Biso   1.000  O
  O5       1.0000 0.27500  0.05560  0.59150  Biso   1.000  O
  O6       1.0000 0.22069  0.09540  0.49770  Biso   1.000  O
  O7       1.0000 0.11920  0.95590  0.05920  Biso   1.000  O
  O8       1.0000 0.11010  0.87490  0.11970  Biso   1.000  O
  O9       1.0000 0.71806  0.98780  0.77940  Biso   1.000  O
  O10      1.0000 0.78253  0.03110  0.84990  Biso   1.000  O
  O11      1.0000 0.76070  0.65330  0.75560  Biso   1.000  O
  O12      1.0000 0.70290  0.72240  0.72810  Biso   1.000  O
  O13      1.0000 0.31590  0.45730  0.24630  Biso   1.000  O
  O14      1.0000 0.37910  0.40950  0.56060  Biso   1.000  O
  O15      1.0000 0.32830  0.56680  0.48840  Biso   1.000  O
  C42      1.0000 0.42610  0.13200  0.80820  Biso   1.000  C
  C43      1.0000 0.44220  0.15120  0.88140  Biso   1.000  C
  C44      1.0000 0.48760  0.15490  0.91770  Biso   1.000  C
  C45      1.0000 0.48450  0.15530  0.61520  Biso   1.000  C
  C46      1.0000 0.49970  0.14100  0.67470  Biso   1.000  C
  C47      1.0000 0.45240  0.13000  0.78100  Biso   1.000  C
  C48      1.0000 0.43590  0.16890  0.57460  Biso   1.000  C
  H33      1.0000 0.42350  0.15940  0.89900  Biso   1.000  H
  H34      1.0000 0.49920  0.15720  0.53670  Biso   1.000  H
  H35      1.0000 0.48050  0.13690  0.69220  Biso   1.000  H
  H36      1.0000 0.44140  0.12260  0.73620  Biso   1.000  H
  N6       1.0000 0.39510  0.33760  0.86070  Biso   1.000  N
  O16      1.0000 0.35840  0.15420  0.75410  Biso   1.000  O
  O17      1.0000 0.35740  0.15070  0.72350  Biso   1.000  O
  Cd4      1.0000 0.21000  0.60581  0.80913  Biso   1.000  Cd
  Cd5      1.0000 0.82140  0.88197  0.32400  Biso   1.000  Cd
  Cd6      1.0000 0.82262  0.94934  0.46342  Biso   1.000  Cd
  C49      1.0000 0.12110  0.60910  0.74590  Biso   1.000  C
  C50      1.0000 0.07130  0.60460  0.71780  Biso   1.000  C
  C51      1.0000 0.05060  0.66150  0.68110  Biso   1.000  C
  H37      1.0000 0.06780  0.70050  0.68070  Biso   1.000  H
  C52      1.0000 0.00660  0.66840  0.64390  Biso   1.000  C
  H38      1.0000 0.99370  0.71010  0.61890  Biso   1.000  H
  C53      1.0000 0.98100  0.60640  0.64580  Biso   1.000  C
  C54      1.0000 0.00140  0.55060  0.68200  Biso   1.000  C
  H39      1.0000 0.98530  0.51050  0.68360  Biso   1.000  H
  C55      1.0000 0.04640  0.54910  0.71810  Biso   1.000  C
  H40      1.0000 0.05990  0.50800  0.74360  Biso   1.000  H
  C56      1.0000 0.93300  0.61260  0.61160  Biso   1.000  C
  C57      1.0000 0.78540  0.79100  0.41040  Biso   1.000  C
  C58      1.0000 0.80280  0.73110  0.46100  Biso   1.000  C
  C59      1.0000 0.84780  0.72020  0.49910  Biso   1.000  C
  H41      1.0000 0.86690  0.74930  0.49110  Biso   1.000  H
  C60      1.0000 0.86520  0.66880  0.54770  Biso   1.000  C
  C61      1.0000 0.83580  0.62760  0.56120  Biso   1.000  C
  H42      1.0000 0.84650  0.59420  0.59580  Biso   1.000  H
  C62      1.0000 0.79100  0.63730  0.52270  Biso   1.000  C
  C63      1.0000 0.77440  0.68790  0.47340  Biso   1.000  C
  H43      1.0000 0.74410  0.69350  0.44820  Biso   1.000  H
  C64      1.0000 0.76050  0.59200  0.53930  Biso   1.000  C
  C65      1.0000 0.59590  0.41250  0.06380  Biso   1.000  C
  C66      1.0000 0.54800  0.40250  0.01500  Biso   1.000  C
  C67      1.0000 0.52300  0.34470  0.02460  Biso   1.000  C
  H44      1.0000 0.53620  0.31510  0.06170  Biso   1.000  H
  C68      1.0000 0.48150  0.33360  0.98090  Biso   1.000  C
  H45      1.0000 0.46610  0.29410  0.98540  Biso   1.000  H
  C69      1.0000 0.46170  0.38020  0.92980  Biso   1.000  C
  C70      1.0000 0.48490  0.43630  0.92160  Biso   1.000  C
  H46      1.0000 0.47150  0.46740  0.88560  Biso   1.000  H
  C71      1.0000 0.52690  0.44590  0.96570  Biso   1.000  C
  H47      1.0000 0.54170  0.48590  0.96070  Biso   1.000  H
  C72      1.0000 0.41430  0.37570  0.88690  Biso   1.000  C
  C73      1.0000 0.25750  0.47940  0.81400  Biso   1.000  C
  C74      1.0000 0.27950  0.40780  0.81420  Biso   1.000  C
  C75      1.0000 0.25270  0.34670  0.78420  Biso   1.000  C
  H48      1.0000 0.22230  0.35140  0.76220  Biso   1.000  H
  C76      1.0000 0.27240  0.27840  0.78790  Biso   1.000  C
  C77      1.0000 0.31840  0.27210  0.81930  Biso   1.000  C
  H49      1.0000 0.33140  0.22690  0.82080  Biso   1.000  H
  C78      1.0000 0.34430  0.33220  0.84790  Biso   1.000  C
  C79      1.0000 0.32410  0.40040  0.84420  Biso   1.000  C
  H50      1.0000 0.34160  0.44140  0.86270  Biso   1.000  H
  C80      1.0000 0.24370  0.21260  0.75560  Biso   1.000  C
  C81      1.0000 0.77790  0.97340  0.20310  Biso   1.000  C
  C82      1.0000 0.71280  0.05620  0.13060  Biso   1.000  C
  H51      1.0000 0.70840  0.10380  0.11060  Biso   1.000  H
  H52      1.0000 0.70040  0.05530  0.15980  Biso   1.000  H
  H53      1.0000 0.69880  0.01970  0.09700  Biso   1.000  H
  C83      1.0000 0.79580  0.08380  0.17070  Biso   1.000  C
  H54      1.0000 0.78490  0.12880  0.14690  Biso   1.000  H
  H55      1.0000 0.81070  0.05640  0.15180  Biso   1.000  H
  H56      1.0000 0.81600  0.09470  0.21590  Biso   1.000  H
  C84      1.0000 0.86840  0.86480  0.59160  Biso   1.000  C
  C85      1.0000 0.94660  0.84260  0.67660  Biso   1.000  C
  H57      1.0000 0.96300  0.81540  0.71650  Biso   1.000  H
  H58      1.0000 0.95330  0.89390  0.68500  Biso   1.000  H
  H59      1.0000 0.95450  0.82620  0.64410  Biso   1.000  H
  C86      1.0000 0.88660  0.78150  0.68870  Biso   1.000  C
  H60      1.0000 0.91210  0.76370  0.72690  Biso   1.000  H
  H61      1.0000 0.87090  0.74090  0.66110  Biso   1.000  H
  H62      1.0000 0.86790  0.80710  0.70200  Biso   1.000  H
  C87      1.0000 0.86460  0.09830  0.51810  Biso   1.000  C
  C88      1.0000 0.82430  0.21290  0.48990  Biso   1.000  C
  H63      1.0000 0.82790  0.26500  0.49660  Biso   1.000  H
  H64      1.0000 0.80620  0.19470  0.50780  Biso   1.000  H
  H65      1.0000 0.81070  0.20240  0.44380  Biso   1.000  H
  C89      1.0000 0.90860  0.20600  0.57340  Biso   1.000  C
  H66      1.0000 0.90680  0.25870  0.57530  Biso   1.000  H
  H67      1.0000 0.93160  0.19330  0.56330  Biso   1.000  H
  H68      1.0000 0.91490  0.18560  0.61510  Biso   1.000  H
  N7       1.0000 0.91060  0.66040  0.58790  Biso   1.000  N
  N8       1.0000 0.38890  0.32460  0.88840  Biso   1.000  N
  N9       1.0000 0.75950  0.04090  0.16720  Biso   1.000  N
  N10      1.0000 0.90010  0.83120  0.65260  Biso   1.000  N
  N11      1.0000 0.86710  0.17760  0.52280  Biso   1.000  N
  O18      1.0000 0.14610  0.61290  0.70200  Biso   1.000  O
  O19      1.0000 0.13520  0.54360  0.78220  Biso   1.000  O
  O20      1.0000 0.74502  0.79330  0.37360  Biso   1.000  O
  O21      1.0000 0.81396  0.83580  0.41100  Biso   1.000  O
  O22      1.0000 0.77500  0.55560  0.59150  Biso   1.000  O
  O23      1.0000 0.72069  0.59540  0.49770  Biso   1.000  O
  O24      1.0000 0.61920  0.45590  0.05920  Biso   1.000  O
  O25      1.0000 0.61010  0.37490  0.11970  Biso   1.000  O
  O26      1.0000 0.21806  0.48780  0.77940  Biso   1.000  O
  O27      1.0000 0.28253  0.53110  0.84990  Biso   1.000  O
  O28      1.0000 0.26070  0.15330  0.75560  Biso   1.000  O
  O29      1.0000 0.20290  0.22240  0.72810  Biso   1.000  O
  O30      1.0000 0.81590  0.95730  0.24630  Biso   1.000  O
  O31      1.0000 0.87910  0.90950  0.56060  Biso   1.000  O
  O32      1.0000 0.82830  0.06680  0.48840  Biso   1.000  O
  C90      1.0000 0.92610  0.63200  0.80820  Biso   1.000  C
  C91      1.0000 0.94220  0.65120  0.88140  Biso   1.000  C
  C92      1.0000 0.98760  0.65490  0.91770  Biso   1.000  C
  C93      1.0000 0.98450  0.65530  0.61520  Biso   1.000  C
  C94      1.0000 0.99970  0.64100  0.67470  Biso   1.000  C
  C95      1.0000 0.95240  0.63000  0.78100  Biso   1.000  C
  C96      1.0000 0.93590  0.66890  0.57460  Biso   1.000  C
  H69      1.0000 0.92350  0.65940  0.89900  Biso   1.000  H
  H70      1.0000 0.99920  0.65720  0.53670  Biso   1.000  H
  H71      1.0000 0.98050  0.63690  0.69220  Biso   1.000  H
  H72      1.0000 0.94140  0.62260  0.73620  Biso   1.000  H
  N12      1.0000 0.89510  0.83760  0.86070  Biso   1.000  N
  O33      1.0000 0.85840  0.65420  0.75410  Biso   1.000  O
  O34      1.0000 0.85740  0.65070  0.72350  Biso   1.000  O
  Cd7      1.0000 0.29000  0.10581  0.69087  Biso   1.000  Cd
  Cd8      1.0000 0.67860  0.38197  0.17600  Biso   1.000  Cd
  Cd9      1.0000 0.67738  0.44934  0.03658  Biso   1.000  Cd
  C97      1.0000 0.37890  0.10910  0.75410  Biso   1.000  C
  C98      1.0000 0.42870  0.10460  0.78220  Biso   1.000  C
  C99      1.0000 0.44940  0.16150  0.81890  Biso   1.000  C
  H73      1.0000 0.43220  0.20050  0.81930  Biso   1.000  H
  C100     1.0000 0.49340  0.16840  0.85610  Biso   1.000  C
  H74      1.0000 0.50630  0.21010  0.88110  Biso   1.000  H
  C101     1.0000 0.51900  0.10640  0.85420  Biso   1.000  C
  C102     1.0000 0.49860  0.05060  0.81800  Biso   1.000  C
  H75      1.0000 0.51470  0.01050  0.81640  Biso   1.000  H
  C103     1.0000 0.45360  0.04910  0.78190  Biso   1.000  C
  H76      1.0000 0.44010  0.00800  0.75640  Biso   1.000  H
  C104     1.0000 0.56700  0.11260  0.88840  Biso   1.000  C
  C105     1.0000 0.71460  0.29100  0.08960  Biso   1.000  C
  C106     1.0000 0.69720  0.23110  0.03900  Biso   1.000  C
  C107     1.0000 0.65220  0.22020  0.00090  Biso   1.000  C
  H77      1.0000 0.63310  0.24930  0.00890  Biso   1.000  H
  C108     1.0000 0.63480  0.16880  0.95230  Biso   1.000  C
  C109     1.0000 0.66420  0.12760  0.93880  Biso   1.000  C
  H78      1.0000 0.65350  0.09420  0.90420  Biso   1.000  H
  C110     1.0000 0.70900  0.13730  0.97730  Biso   1.000  C
  C111     1.0000 0.72560  0.18790  0.02660  Biso   1.000  C
  H79      1.0000 0.75590  0.19350  0.05180  Biso   1.000  H
  C112     1.0000 0.73950  0.09200  0.96070  Biso   1.000  C
  C113     1.0000 0.90410  0.91250  0.43620  Biso   1.000  C
  C114     1.0000 0.95200  0.90250  0.48500  Biso   1.000  C
  C115     1.0000 0.97700  0.84470  0.47540  Biso   1.000  C
  H80      1.0000 0.96380  0.81510  0.43830  Biso   1.000  H
  C116     1.0000 0.01850  0.83360  0.51910  Biso   1.000  C
  H81      1.0000 0.03390  0.79410  0.51460  Biso   1.000  H
  C117     1.0000 0.03830  0.88020  0.57020  Biso   1.000  C
  C118     1.0000 0.01510  0.93630  0.57840  Biso   1.000  C
  H82      1.0000 0.02850  0.96740  0.61440  Biso   1.000  H
  C119     1.0000 0.97310  0.94590  0.53430  Biso   1.000  C
  H83      1.0000 0.95830  0.98590  0.53930  Biso   1.000  H
  C120     1.0000 0.08570  0.87570  0.61310  Biso   1.000  C
  C121     1.0000 0.24250  0.97940  0.68600  Biso   1.000  C
  C122     1.0000 0.22050  0.90780  0.68580  Biso   1.000  C
  C123     1.0000 0.24730  0.84670  0.71580  Biso   1.000  C
  H84      1.0000 0.27770  0.85140  0.73780  Biso   1.000  H
  C124     1.0000 0.22760  0.77840  0.71210  Biso   1.000  C
  C125     1.0000 0.18160  0.77210  0.68070  Biso   1.000  C
  H85      1.0000 0.16860  0.72690  0.67920  Biso   1.000  H
  C126     1.0000 0.15570  0.83220  0.65210  Biso   1.000  C
  C127     1.0000 0.17590  0.90040  0.65580  Biso   1.000  C
  H86      1.0000 0.15840  0.94140  0.63730  Biso   1.000  H
  C128     1.0000 0.25630  0.71260  0.74440  Biso   1.000  C
  C129     1.0000 0.72210  0.47340  0.29690  Biso   1.000  C
  C130     1.0000 0.78720  0.55620  0.36940  Biso   1.000  C
  H87      1.0000 0.79160  0.60380  0.38940  Biso   1.000  H
  H88      1.0000 0.79960  0.55530  0.34020  Biso   1.000  H
  H89      1.0000 0.80120  0.51970  0.40300  Biso   1.000  H
  C131     1.0000 0.70420  0.58380  0.32930  Biso   1.000  C
  H90      1.0000 0.71510  0.62880  0.35310  Biso   1.000  H
  H91      1.0000 0.68930  0.55640  0.34820  Biso   1.000  H
  H92      1.0000 0.68400  0.59470  0.28410  Biso   1.000  H
  C132     1.0000 0.63160  0.36480  0.90840  Biso   1.000  C
  C133     1.0000 0.55340  0.34260  0.82340  Biso   1.000  C
  H93      1.0000 0.53700  0.31540  0.78350  Biso   1.000  H
  H94      1.0000 0.54670  0.39390  0.81500  Biso   1.000  H
  H95      1.0000 0.54550  0.32620  0.85590  Biso   1.000  H
  C134     1.0000 0.61340  0.28150  0.81130  Biso   1.000  C
  H96      1.0000 0.58790  0.26370  0.77310  Biso   1.000  H
  H97      1.0000 0.62910  0.24090  0.83890  Biso   1.000  H
  H98      1.0000 0.63210  0.30710  0.79800  Biso   1.000  H
  C135     1.0000 0.63540  0.59830  0.98190  Biso   1.000  C
  C136     1.0000 0.67570  0.71290  0.01010  Biso   1.000  C
  H99      1.0000 0.67210  0.76500  0.00340  Biso   1.000  H
  H100     1.0000 0.69380  0.69470  0.99220  Biso   1.000  H
  H101     1.0000 0.68930  0.70240  0.05620  Biso   1.000  H
  C137     1.0000 0.59140  0.70600  0.92660  Biso   1.000  C
  H102     1.0000 0.59320  0.75870  0.92470  Biso   1.000  H
  H103     1.0000 0.56840  0.69330  0.93670  Biso   1.000  H
  H104     1.0000 0.58510  0.68560  0.88490  Biso   1.000  H
  N13      1.0000 0.58940  0.16040  0.91210  Biso   1.000  N
  N14      1.0000 0.11110  0.82460  0.61160  Biso   1.000  N
  N15      1.0000 0.74050  0.54090  0.33280  Biso   1.000  N
  N16      1.0000 0.59990  0.33120  0.84740  Biso   1.000  N
  N17      1.0000 0.63290  0.67760  0.97720  Biso   1.000  N
  O35      1.0000 0.35390  0.11290  0.79800  Biso   1.000  O
  O36      1.0000 0.36480  0.04360  0.71780  Biso   1.000  O
  O37      1.0000 0.75498  0.29330  0.12640  Biso   1.000  O
  O38      1.0000 0.68604  0.33580  0.08900  Biso   1.000  O
  O39      1.0000 0.72500  0.05560  0.90850  Biso   1.000  O
  O40      1.0000 0.77931  0.09540  0.00230  Biso   1.000  O
  O41      1.0000 0.88080  0.95590  0.44080  Biso   1.000  O
  O42      1.0000 0.88990  0.87490  0.38030  Biso   1.000  O
  O43      1.0000 0.28194  0.98780  0.72060  Biso   1.000  O
  O44      1.0000 0.21747  0.03110  0.65010  Biso   1.000  O
  O45      1.0000 0.23930  0.65330  0.74440  Biso   1.000  O
  O46      1.0000 0.29710  0.72240  0.77190  Biso   1.000  O
  O47      1.0000 0.68410  0.45730  0.25370  Biso   1.000  O
  O48      1.0000 0.62090  0.40950  0.93940  Biso   1.000  O
  O49      1.0000 0.67170  0.56680  0.01160  Biso   1.000  O
  C138     1.0000 0.57390  0.13200  0.69180  Biso   1.000  C
  C139     1.0000 0.55780  0.15120  0.61860  Biso   1.000  C
  C140     1.0000 0.51240  0.15490  0.58230  Biso   1.000  C
  C141     1.0000 0.51550  0.15530  0.88480  Biso   1.000  C
  C142     1.0000 0.50030  0.14100  0.82530  Biso   1.000  C
  C143     1.0000 0.54760  0.13000  0.71900  Biso   1.000  C
  C144     1.0000 0.56410  0.16890  0.92540  Biso   1.000  C
  H105     1.0000 0.57650  0.15940  0.60100  Biso   1.000  H
  H106     1.0000 0.50080  0.15720  0.96330  Biso   1.000  H
  H107     1.0000 0.51950  0.13690  0.80780  Biso   1.000  H
  H108     1.0000 0.55860  0.12260  0.76380  Biso   1.000  H
  N18      1.0000 0.60490  0.33760  0.63930  Biso   1.000  N
  O50      1.0000 0.64160  0.15420  0.74590  Biso   1.000  O
  O51      1.0000 0.64260  0.15070  0.77650  Biso   1.000  O
  Cd10     1.0000 0.79000  0.60581  0.69087  Biso   1.000  Cd
  Cd11     1.0000 0.17860  0.88197  0.17600  Biso   1.000  Cd
  Cd12     1.0000 0.17738  0.94934  0.03658  Biso   1.000  Cd
  C145     1.0000 0.87890  0.60910  0.75410  Biso   1.000  C
  C146     1.0000 0.92870  0.60460  0.78220  Biso   1.000  C
  C147     1.0000 0.94940  0.66150  0.81890  Biso   1.000  C
  H109     1.0000 0.93220  0.70050  0.81930  Biso   1.000  H
  C148     1.0000 0.99340  0.66840  0.85610  Biso   1.000  C
  H110     1.0000 0.00630  0.71010  0.88110  Biso   1.000  H
  C149     1.0000 0.01900  0.60640  0.85420  Biso   1.000  C
  C150     1.0000 0.99860  0.55060  0.81800  Biso   1.000  C
  H111     1.0000 0.01470  0.51050  0.81640  Biso   1.000  H
  C151     1.0000 0.95360  0.54910  0.78190  Biso   1.000  C
  H112     1.0000 0.94010  0.50800  0.75640  Biso   1.000  H
  C152     1.0000 0.06700  0.61260  0.88840  Biso   1.000  C
  C153     1.0000 0.21460  0.79100  0.08960  Biso   1.000  C
  C154     1.0000 0.19720  0.73110  0.03900  Biso   1.000  C
  C155     1.0000 0.15220  0.72020  0.00090  Biso   1.000  C
  H113     1.0000 0.13310  0.74930  0.00890  Biso   1.000  H
  C156     1.0000 0.13480  0.66880  0.95230  Biso   1.000  C
  C157     1.0000 0.16420  0.62760  0.93880  Biso   1.000  C
  H114     1.0000 0.15350  0.59420  0.90420  Biso   1.000  H
  C158     1.0000 0.20900  0.63730  0.97730  Biso   1.000  C
  C159     1.0000 0.22560  0.68790  0.02660  Biso   1.000  C
  H115     1.0000 0.25590  0.69350  0.05180  Biso   1.000  H
  C160     1.0000 0.23950  0.59200  0.96070  Biso   1.000  C
  C161     1.0000 0.40410  0.41250  0.43620  Biso   1.000  C
  C162     1.0000 0.45200  0.40250  0.48500  Biso   1.000  C
  C163     1.0000 0.47700  0.34470  0.47540  Biso   1.000  C
  H116     1.0000 0.46380  0.31510  0.43830  Biso   1.000  H
  C164     1.0000 0.51850  0.33360  0.51910  Biso   1.000  C
  H117     1.0000 0.53390  0.29410  0.51460  Biso   1.000  H
  C165     1.0000 0.53830  0.38020  0.57020  Biso   1.000  C
  C166     1.0000 0.51510  0.43630  0.57840  Biso   1.000  C
  H118     1.0000 0.52850  0.46740  0.61440  Biso   1.000  H
  C167     1.0000 0.47310  0.44590  0.53430  Biso   1.000  C
  H119     1.0000 0.45830  0.48590  0.53930  Biso   1.000  H
  C168     1.0000 0.58570  0.37570  0.61310  Biso   1.000  C
  C169     1.0000 0.74250  0.47940  0.68600  Biso   1.000  C
  C170     1.0000 0.72050  0.40780  0.68580  Biso   1.000  C
  C171     1.0000 0.74730  0.34670  0.71580  Biso   1.000  C
  H120     1.0000 0.77770  0.35140  0.73780  Biso   1.000  H
  C172     1.0000 0.72760  0.27840  0.71210  Biso   1.000  C
  C173     1.0000 0.68160  0.27210  0.68070  Biso   1.000  C
  H121     1.0000 0.66860  0.22690  0.67920  Biso   1.000  H
  C174     1.0000 0.65570  0.33220  0.65210  Biso   1.000  C
  C175     1.0000 0.67590  0.40040  0.65580  Biso   1.000  C
  H122     1.0000 0.65840  0.44140  0.63730  Biso   1.000  H
  C176     1.0000 0.75630  0.21260  0.74440  Biso   1.000  C
  C177     1.0000 0.22210  0.97340  0.29690  Biso   1.000  C
  C178     1.0000 0.28720  0.05620  0.36940  Biso   1.000  C
  H123     1.0000 0.29160  0.10380  0.38940  Biso   1.000  H
  H124     1.0000 0.29960  0.05530  0.34020  Biso   1.000  H
  H125     1.0000 0.30120  0.01970  0.40300  Biso   1.000  H
  C179     1.0000 0.20420  0.08380  0.32930  Biso   1.000  C
  H126     1.0000 0.21510  0.12880  0.35310  Biso   1.000  H
  H127     1.0000 0.18930  0.05640  0.34820  Biso   1.000  H
  H128     1.0000 0.18400  0.09470  0.28410  Biso   1.000  H
  C180     1.0000 0.13160  0.86480  0.90840  Biso   1.000  C
  C181     1.0000 0.05340  0.84260  0.82340  Biso   1.000  C
  H129     1.0000 0.03700  0.81540  0.78350  Biso   1.000  H
  H130     1.0000 0.04670  0.89390  0.81500  Biso   1.000  H
  H131     1.0000 0.04550  0.82620  0.85590  Biso   1.000  H
  C182     1.0000 0.11340  0.78150  0.81130  Biso   1.000  C
  H132     1.0000 0.08790  0.76370  0.77310  Biso   1.000  H
  H133     1.0000 0.12910  0.74090  0.83890  Biso   1.000  H
  H134     1.0000 0.13210  0.80710  0.79800  Biso   1.000  H
  C183     1.0000 0.13540  0.09830  0.98190  Biso   1.000  C
  C184     1.0000 0.17570  0.21290  0.01010  Biso   1.000  C
  H135     1.0000 0.17210  0.26500  0.00340  Biso   1.000  H
  H136     1.0000 0.19380  0.19470  0.99220  Biso   1.000  H
  H137     1.0000 0.18930  0.20240  0.05620  Biso   1.000  H
  C185     1.0000 0.09140  0.20600  0.92660  Biso   1.000  C
  H138     1.0000 0.09320  0.25870  0.92470  Biso   1.000  H
  H139     1.0000 0.06840  0.19330  0.93670  Biso   1.000  H
  H140     1.0000 0.08510  0.18560  0.88490  Biso   1.000  H
  N19      1.0000 0.08940  0.66040  0.91210  Biso   1.000  N
  N20      1.0000 0.61110  0.32460  0.61160  Biso   1.000  N
  N21      1.0000 0.24050  0.04090  0.33280  Biso   1.000  N
  N22      1.0000 0.09990  0.83120  0.84740  Biso   1.000  N
  N23      1.0000 0.13290  0.17760  0.97720  Biso   1.000  N
  O52      1.0000 0.85390  0.61290  0.79800  Biso   1.000  O
  O53      1.0000 0.86480  0.54360  0.71780  Biso   1.000  O
  O54      1.0000 0.25498  0.79330  0.12640  Biso   1.000  O
  O55      1.0000 0.18604  0.83580  0.08900  Biso   1.000  O
  O56      1.0000 0.22500  0.55560  0.90850  Biso   1.000  O
  O57      1.0000 0.27931  0.59540  0.00230  Biso   1.000  O
  O58      1.0000 0.38080  0.45590  0.44080  Biso   1.000  O
  O59      1.0000 0.38990  0.37490  0.38030  Biso   1.000  O
  O60      1.0000 0.78194  0.48780  0.72060  Biso   1.000  O
  O61      1.0000 0.71747  0.53110  0.65010  Biso   1.000  O
  O62      1.0000 0.73930  0.15330  0.74440  Biso   1.000  O
  O63      1.0000 0.79710  0.22240  0.77190  Biso   1.000  O
  O64      1.0000 0.18410  0.95730  0.25370  Biso   1.000  O
  O65      1.0000 0.12090  0.90950  0.93940  Biso   1.000  O
  O66      1.0000 0.17170  0.06680  0.01160  Biso   1.000  O
  C186     1.0000 0.07390  0.63200  0.69180  Biso   1.000  C
  C187     1.0000 0.05780  0.65120  0.61860  Biso   1.000  C
  C188     1.0000 0.01240  0.65490  0.58230  Biso   1.000  C
  C189     1.0000 0.01550  0.65530  0.88480  Biso   1.000  C
  C190     1.0000 0.00030  0.64100  0.82530  Biso   1.000  C
  C191     1.0000 0.04760  0.63000  0.71900  Biso   1.000  C
  C192     1.0000 0.06410  0.66890  0.92540  Biso   1.000  C
  H141     1.0000 0.07650  0.65940  0.60100  Biso   1.000  H
  H142     1.0000 0.00080  0.65720  0.96330  Biso   1.000  H
  H143     1.0000 0.01950  0.63690  0.80780  Biso   1.000  H
  H144     1.0000 0.05860  0.62260  0.76380  Biso   1.000  H
  N24      1.0000 0.10490  0.83760  0.63930  Biso   1.000  N
  O67      1.0000 0.14160  0.65420  0.74590  Biso   1.000  O
  O68      1.0000 0.14260  0.65070  0.77650  Biso   1.000  O
  Cd13     1.0000 0.29000  0.89419  0.19087  Biso   1.000  Cd
  Cd14     1.0000 0.67860  0.61803  0.67600  Biso   1.000  Cd
  Cd15     1.0000 0.67738  0.55066  0.53658  Biso   1.000  Cd
  C193     1.0000 0.37890  0.89090  0.25410  Biso   1.000  C
  C194     1.0000 0.42870  0.89540  0.28220  Biso   1.000  C
  C195     1.0000 0.44940  0.83850  0.31890  Biso   1.000  C
  H145     1.0000 0.43220  0.79950  0.31930  Biso   1.000  H
  C196     1.0000 0.49340  0.83160  0.35610  Biso   1.000  C
  H146     1.0000 0.50630  0.78990  0.38110  Biso   1.000  H
  C197     1.0000 0.51900  0.89360  0.35420  Biso   1.000  C
  C198     1.0000 0.49860  0.94940  0.31800  Biso   1.000  C
  H147     1.0000 0.51470  0.98950  0.31640  Biso   1.000  H
  C199     1.0000 0.45360  0.95090  0.28190  Biso   1.000  C
  H148     1.0000 0.44010  0.99200  0.25640  Biso   1.000  H
  C200     1.0000 0.56700  0.88740  0.38840  Biso   1.000  C
  C201     1.0000 0.71460  0.70900  0.58960  Biso   1.000  C
  C202     1.0000 0.69720  0.76890  0.53900  Biso   1.000  C
  C203     1.0000 0.65220  0.77980  0.50090  Biso   1.000  C
  H149     1.0000 0.63310  0.75070  0.50890  Biso   1.000  H
  C204     1.0000 0.63480  0.83120  0.45230  Biso   1.000  C
  C205     1.0000 0.66420  0.87240  0.43880  Biso   1.000  C
  H150     1.0000 0.65350  0.90580  0.40420  Biso   1.000  H
  C206     1.0000 0.70900  0.86270  0.47730  Biso   1.000  C
  C207     1.0000 0.72560  0.81210  0.52660  Biso   1.000  C
  H151     1.0000 0.75590  0.80650  0.55180  Biso   1.000  H
  C208     1.0000 0.73950  0.90800  0.46070  Biso   1.000  C
  C209     1.0000 0.90410  0.08750  0.93620  Biso   1.000  C
  C210     1.0000 0.95200  0.09750  0.98500  Biso   1.000  C
  C211     1.0000 0.97700  0.15530  0.97540  Biso   1.000  C
  H152     1.0000 0.96380  0.18490  0.93830  Biso   1.000  H
  C212     1.0000 0.01850  0.16640  0.01910  Biso   1.000  C
  H153     1.0000 0.03390  0.20590  0.01460  Biso   1.000  H
  C213     1.0000 0.03830  0.11980  0.07020  Biso   1.000  C
  C214     1.0000 0.01510  0.06370  0.07840  Biso   1.000  C
  H154     1.0000 0.02850  0.03260  0.11440  Biso   1.000  H
  C215     1.0000 0.97310  0.05410  0.03430  Biso   1.000  C
  H155     1.0000 0.95830  0.01410  0.03930  Biso   1.000  H
  C216     1.0000 0.08570  0.12430  0.11310  Biso   1.000  C
  C217     1.0000 0.24250  0.02060  0.18600  Biso   1.000  C
  C218     1.0000 0.22050  0.09220  0.18580  Biso   1.000  C
  C219     1.0000 0.24730  0.15330  0.21580  Biso   1.000  C
  H156     1.0000 0.27770  0.14860  0.23780  Biso   1.000  H
  C220     1.0000 0.22760  0.22160  0.21210  Biso   1.000  C
  C221     1.0000 0.18160  0.22790  0.18070  Biso   1.000  C
  H157     1.0000 0.16860  0.27310  0.17920  Biso   1.000  H
  C222     1.0000 0.15570  0.16780  0.15210  Biso   1.000  C
  C223     1.0000 0.17590  0.09960  0.15580  Biso   1.000  C
  H158     1.0000 0.15840  0.05860  0.13730  Biso   1.000  H
  C224     1.0000 0.25630  0.28740  0.24440  Biso   1.000  C
  C225     1.0000 0.72210  0.52660  0.79690  Biso   1.000  C
  C226     1.0000 0.78720  0.44380  0.86940  Biso   1.000  C
  H159     1.0000 0.79160  0.39620  0.88940  Biso   1.000  H
  H160     1.0000 0.79960  0.44470  0.84020  Biso   1.000  H
  H161     1.0000 0.80120  0.48030  0.90300  Biso   1.000  H
  C227     1.0000 0.70420  0.41620  0.82930  Biso   1.000  C
  H162     1.0000 0.71510  0.37120  0.85310  Biso   1.000  H
  H163     1.0000 0.68930  0.44360  0.84820  Biso   1.000  H
  H164     1.0000 0.68400  0.40530  0.78410  Biso   1.000  H
  C228     1.0000 0.63160  0.63520  0.40840  Biso   1.000  C
  C229     1.0000 0.55340  0.65740  0.32340  Biso   1.000  C
  H165     1.0000 0.53700  0.68460  0.28350  Biso   1.000  H
  H166     1.0000 0.54670  0.60610  0.31500  Biso   1.000  H
  H167     1.0000 0.54550  0.67380  0.35590  Biso   1.000  H
  C230     1.0000 0.61340  0.71850  0.31130  Biso   1.000  C
  H168     1.0000 0.58790  0.73630  0.27310  Biso   1.000  H
  H169     1.0000 0.62910  0.75910  0.33890  Biso   1.000  H
  H170     1.0000 0.63210  0.69290  0.29800  Biso   1.000  H
  C231     1.0000 0.63540  0.40170  0.48190  Biso   1.000  C
  C232     1.0000 0.67570  0.28710  0.51010  Biso   1.000  C
  H171     1.0000 0.67210  0.23500  0.50340  Biso   1.000  H
  H172     1.0000 0.69380  0.30530  0.49220  Biso   1.000  H
  H173     1.0000 0.68930  0.29760  0.55620  Biso   1.000  H
  C233     1.0000 0.59140  0.29400  0.42660  Biso   1.000  C
  H174     1.0000 0.59320  0.24130  0.42470  Biso   1.000  H
  H175     1.0000 0.56840  0.30670  0.43670  Biso   1.000  H
  H176     1.0000 0.58510  0.31440  0.38490  Biso   1.000  H
  N25      1.0000 0.58940  0.83960  0.41210  Biso   1.000  N
  N26      1.0000 0.11110  0.17540  0.11160  Biso   1.000  N
  N27      1.0000 0.74050  0.45910  0.83280  Biso   1.000  N
  N28      1.0000 0.59990  0.66880  0.34740  Biso   1.000  N
  N29      1.0000 0.63290  0.32240  0.47720  Biso   1.000  N
  O69      1.0000 0.35390  0.88710  0.29800  Biso   1.000  O
  O70      1.0000 0.36480  0.95640  0.21780  Biso   1.000  O
  O71      1.0000 0.75498  0.70670  0.62640  Biso   1.000  O
  O72      1.0000 0.68604  0.66420  0.58900  Biso   1.000  O
  O73      1.0000 0.72500  0.94440  0.40850  Biso   1.000  O
  O74      1.0000 0.77931  0.90460  0.50230  Biso   1.000  O
  O75      1.0000 0.88080  0.04410  0.94080  Biso   1.000  O
  O76      1.0000 0.88990  0.12510  0.88030  Biso   1.000  O
  O77      1.0000 0.28194  0.01220  0.22060  Biso   1.000  O
  O78      1.0000 0.21747  0.96890  0.15010  Biso   1.000  O
  O79      1.0000 0.23930  0.34670  0.24440  Biso   1.000  O
  O80      1.0000 0.29710  0.27760  0.27190  Biso   1.000  O
  O81      1.0000 0.68410  0.54270  0.75370  Biso   1.000  O
  O82      1.0000 0.62090  0.59050  0.43940  Biso   1.000  O
  O83      1.0000 0.67170  0.43320  0.51160  Biso   1.000  O
  C234     1.0000 0.57390  0.86800  0.19180  Biso   1.000  C
  C235     1.0000 0.55780  0.84880  0.11860  Biso   1.000  C
  C236     1.0000 0.51240  0.84510  0.08230  Biso   1.000  C
  C237     1.0000 0.51550  0.84470  0.38480  Biso   1.000  C
  C238     1.0000 0.50030  0.85900  0.32530  Biso   1.000  C
  C239     1.0000 0.54760  0.87000  0.21900  Biso   1.000  C
  C240     1.0000 0.56410  0.83110  0.42540  Biso   1.000  C
  H177     1.0000 0.57650  0.84060  0.10100  Biso   1.000  H
  H178     1.0000 0.50080  0.84280  0.46330  Biso   1.000  H
  H179     1.0000 0.51950  0.86310  0.30780  Biso   1.000  H
  H180     1.0000 0.55860  0.87740  0.26380  Biso   1.000  H
  N30      1.0000 0.60490  0.66240  0.13930  Biso   1.000  N
  O84      1.0000 0.64160  0.84580  0.24590  Biso   1.000  O
  O85      1.0000 0.64260  0.84930  0.27650  Biso   1.000  O
  Cd16     1.0000 0.79000  0.39419  0.19087  Biso   1.000  Cd
  Cd17     1.0000 0.17860  0.11803  0.67600  Biso   1.000  Cd
  Cd18     1.0000 0.17738  0.05066  0.53658  Biso   1.000  Cd
  C241     1.0000 0.87890  0.39090  0.25410  Biso   1.000  C
  C242     1.0000 0.92870  0.39540  0.28220  Biso   1.000  C
  C243     1.0000 0.94940  0.33850  0.31890  Biso   1.000  C
  H181     1.0000 0.93220  0.29950  0.31930  Biso   1.000  H
  C244     1.0000 0.99340  0.33160  0.35610  Biso   1.000  C
  H182     1.0000 0.00630  0.28990  0.38110  Biso   1.000  H
  C245     1.0000 0.01900  0.39360  0.35420  Biso   1.000  C
  C246     1.0000 0.99860  0.44940  0.31800  Biso   1.000  C
  H183     1.0000 0.01470  0.48950  0.31640  Biso   1.000  H
  C247     1.0000 0.95360  0.45090  0.28190  Biso   1.000  C
  H184     1.0000 0.94010  0.49200  0.25640  Biso   1.000  H
  C248     1.0000 0.06700  0.38740  0.38840  Biso   1.000  C
  C249     1.0000 0.21460  0.20900  0.58960  Biso   1.000  C
  C250     1.0000 0.19720  0.26890  0.53900  Biso   1.000  C
  C251     1.0000 0.15220  0.27980  0.50090  Biso   1.000  C
  H185     1.0000 0.13310  0.25070  0.50890  Biso   1.000  H
  C252     1.0000 0.13480  0.33120  0.45230  Biso   1.000  C
  C253     1.0000 0.16420  0.37240  0.43880  Biso   1.000  C
  H186     1.0000 0.15350  0.40580  0.40420  Biso   1.000  H
  C254     1.0000 0.20900  0.36270  0.47730  Biso   1.000  C
  C255     1.0000 0.22560  0.31210  0.52660  Biso   1.000  C
  H187     1.0000 0.25590  0.30650  0.55180  Biso   1.000  H
  C256     1.0000 0.23950  0.40800  0.46070  Biso   1.000  C
  C257     1.0000 0.40410  0.58750  0.93620  Biso   1.000  C
  C258     1.0000 0.45200  0.59750  0.98500  Biso   1.000  C
  C259     1.0000 0.47700  0.65530  0.97540  Biso   1.000  C
  H188     1.0000 0.46380  0.68490  0.93830  Biso   1.000  H
  C260     1.0000 0.51850  0.66640  0.01910  Biso   1.000  C
  H189     1.0000 0.53390  0.70590  0.01460  Biso   1.000  H
  C261     1.0000 0.53830  0.61980  0.07020  Biso   1.000  C
  C262     1.0000 0.51510  0.56370  0.07840  Biso   1.000  C
  H190     1.0000 0.52850  0.53260  0.11440  Biso   1.000  H
  C263     1.0000 0.47310  0.55410  0.03430  Biso   1.000  C
  H191     1.0000 0.45830  0.51410  0.03930  Biso   1.000  H
  C264     1.0000 0.58570  0.62430  0.11310  Biso   1.000  C
  C265     1.0000 0.74250  0.52060  0.18600  Biso   1.000  C
  C266     1.0000 0.72050  0.59220  0.18580  Biso   1.000  C
  C267     1.0000 0.74730  0.65330  0.21580  Biso   1.000  C
  H192     1.0000 0.77770  0.64860  0.23780  Biso   1.000  H
  C268     1.0000 0.72760  0.72160  0.21210  Biso   1.000  C
  C269     1.0000 0.68160  0.72790  0.18070  Biso   1.000  C
  H193     1.0000 0.66860  0.77310  0.17920  Biso   1.000  H
  C270     1.0000 0.65570  0.66780  0.15210  Biso   1.000  C
  C271     1.0000 0.67590  0.59960  0.15580  Biso   1.000  C
  H194     1.0000 0.65840  0.55860  0.13730  Biso   1.000  H
  C272     1.0000 0.75630  0.78740  0.24440  Biso   1.000  C
  C273     1.0000 0.22210  0.02660  0.79690  Biso   1.000  C
  C274     1.0000 0.28720  0.94380  0.86940  Biso   1.000  C
  H195     1.0000 0.29160  0.89620  0.88940  Biso   1.000  H
  H196     1.0000 0.29960  0.94470  0.84020  Biso   1.000  H
  H197     1.0000 0.30120  0.98030  0.90300  Biso   1.000  H
  C275     1.0000 0.20420  0.91620  0.82930  Biso   1.000  C
  H198     1.0000 0.21510  0.87120  0.85310  Biso   1.000  H
  H199     1.0000 0.18930  0.94360  0.84820  Biso   1.000  H
  H200     1.0000 0.18400  0.90530  0.78410  Biso   1.000  H
  C276     1.0000 0.13160  0.13520  0.40840  Biso   1.000  C
  C277     1.0000 0.05340  0.15740  0.32340  Biso   1.000  C
  H201     1.0000 0.03700  0.18460  0.28350  Biso   1.000  H
  H202     1.0000 0.04670  0.10610  0.31500  Biso   1.000  H
  H203     1.0000 0.04550  0.17380  0.35590  Biso   1.000  H
  C278     1.0000 0.11340  0.21850  0.31130  Biso   1.000  C
  H204     1.0000 0.08790  0.23630  0.27310  Biso   1.000  H
  H205     1.0000 0.12910  0.25910  0.33890  Biso   1.000  H
  H206     1.0000 0.13210  0.19290  0.29800  Biso   1.000  H
  C279     1.0000 0.13540  0.90170  0.48190  Biso   1.000  C
  C280     1.0000 0.17570  0.78710  0.51010  Biso   1.000  C
  H207     1.0000 0.17210  0.73500  0.50340  Biso   1.000  H
  H208     1.0000 0.19380  0.80530  0.49220  Biso   1.000  H
  H209     1.0000 0.18930  0.79760  0.55620  Biso   1.000  H
  C281     1.0000 0.09140  0.79400  0.42660  Biso   1.000  C
  H210     1.0000 0.09320  0.74130  0.42470  Biso   1.000  H
  H211     1.0000 0.06840  0.80670  0.43670  Biso   1.000  H
  H212     1.0000 0.08510  0.81440  0.38490  Biso   1.000  H
  N31      1.0000 0.08940  0.33960  0.41210  Biso   1.000  N
  N32      1.0000 0.61110  0.67540  0.11160  Biso   1.000  N
  N33      1.0000 0.24050  0.95910  0.83280  Biso   1.000  N
  N34      1.0000 0.09990  0.16880  0.34740  Biso   1.000  N
  N35      1.0000 0.13290  0.82240  0.47720  Biso   1.000  N
  O86      1.0000 0.85390  0.38710  0.29800  Biso   1.000  O
  O87      1.0000 0.86480  0.45640  0.21780  Biso   1.000  O
  O88      1.0000 0.25498  0.20670  0.62640  Biso   1.000  O
  O89      1.0000 0.18604  0.16420  0.58900  Biso   1.000  O
  O90      1.0000 0.22500  0.44440  0.40850  Biso   1.000  O
  O91      1.0000 0.27931  0.40460  0.50230  Biso   1.000  O
  O92      1.0000 0.38080  0.54410  0.94080  Biso   1.000  O
  O93      1.0000 0.38990  0.62510  0.88030  Biso   1.000  O
  O94      1.0000 0.78194  0.51220  0.22060  Biso   1.000  O
  O95      1.0000 0.71747  0.46890  0.15010  Biso   1.000  O
  O96      1.0000 0.73930  0.84670  0.24440  Biso   1.000  O
  O97      1.0000 0.79710  0.77760  0.27190  Biso   1.000  O
  O98      1.0000 0.18410  0.04270  0.75370  Biso   1.000  O
  O99      1.0000 0.12090  0.09050  0.43940  Biso   1.000  O
  O100     1.0000 0.17170  0.93320  0.51160  Biso   1.000  O
  C282     1.0000 0.07390  0.36800  0.19180  Biso   1.000  C
  C283     1.0000 0.05780  0.34880  0.11860  Biso   1.000  C
  C284     1.0000 0.01240  0.34510  0.08230  Biso   1.000  C
  C285     1.0000 0.01550  0.34470  0.38480  Biso   1.000  C
  C286     1.0000 0.00030  0.35900  0.32530  Biso   1.000  C
  C287     1.0000 0.04760  0.37000  0.21900  Biso   1.000  C
  C288     1.0000 0.06410  0.33110  0.42540  Biso   1.000  C
  H213     1.0000 0.07650  0.34060  0.10100  Biso   1.000  H
  H214     1.0000 0.00080  0.34280  0.46330  Biso   1.000  H
  H215     1.0000 0.01950  0.36310  0.30780  Biso   1.000  H
  H216     1.0000 0.05860  0.37740  0.26380  Biso   1.000  H
  N36      1.0000 0.10490  0.16240  0.13930  Biso   1.000  N
  O101     1.0000 0.14160  0.34580  0.24590  Biso   1.000  O
  O102     1.0000 0.14260  0.34930  0.27650  Biso   1.000  O
  Cd19     1.0000 0.71000  0.89419  0.30913  Biso   1.000  Cd
  Cd20     1.0000 0.32140  0.61803  0.82400  Biso   1.000  Cd
  Cd21     1.0000 0.32262  0.55066  0.96342  Biso   1.000  Cd
  C289     1.0000 0.62110  0.89090  0.24590  Biso   1.000  C
  C290     1.0000 0.57130  0.89540  0.21780  Biso   1.000  C
  C291     1.0000 0.55060  0.83850  0.18110  Biso   1.000  C
  H217     1.0000 0.56780  0.79950  0.18070  Biso   1.000  H
  C292     1.0000 0.50660  0.83160  0.14390  Biso   1.000  C
  H218     1.0000 0.49370  0.78990  0.11890  Biso   1.000  H
  C293     1.0000 0.48100  0.89360  0.14580  Biso   1.000  C
  C294     1.0000 0.50140  0.94940  0.18200  Biso   1.000  C
  H219     1.0000 0.48530  0.98950  0.18360  Biso   1.000  H
  C295     1.0000 0.54640  0.95090  0.21810  Biso   1.000  C
  H220     1.0000 0.55990  0.99200  0.24360  Biso   1.000  H
  C296     1.0000 0.43300  0.88740  0.11160  Biso   1.000  C
  C297     1.0000 0.28540  0.70900  0.91040  Biso   1.000  C
  C298     1.0000 0.30280  0.76890  0.96100  Biso   1.000  C
  C299     1.0000 0.34780  0.77980  0.99910  Biso   1.000  C
  H221     1.0000 0.36690  0.75070  0.99110  Biso   1.000  H
  C300     1.0000 0.36520  0.83120  0.04770  Biso   1.000  C
  C301     1.0000 0.33580  0.87240  0.06120  Biso   1.000  C
  H222     1.0000 0.34650  0.90580  0.09580  Biso   1.000  H
  C302     1.0000 0.29100  0.86270  0.02270  Biso   1.000  C
  C303     1.0000 0.27440  0.81210  0.97340  Biso   1.000  C
  H223     1.0000 0.24410  0.80650  0.94820  Biso   1.000  H
  C304     1.0000 0.26050  0.90800  0.03930  Biso   1.000  C
  C305     1.0000 0.09590  0.08750  0.56380  Biso   1.000  C
  C306     1.0000 0.04800  0.09750  0.51500  Biso   1.000  C
  C307     1.0000 0.02300  0.15530  0.52460  Biso   1.000  C
  H224     1.0000 0.03620  0.18490  0.56170  Biso   1.000  H
  C308     1.0000 0.98150  0.16640  0.48090  Biso   1.000  C
  H225     1.0000 0.96610  0.20590  0.48540  Biso   1.000  H
  C309     1.0000 0.96170  0.11980  0.42980  Biso   1.000  C
  C310     1.0000 0.98490  0.06370  0.42160  Biso   1.000  C
  H226     1.0000 0.97150  0.03260  0.38560  Biso   1.000  H
  C311     1.0000 0.02690  0.05410  0.46570  Biso   1.000  C
  H227     1.0000 0.04170  0.01410  0.46070  Biso   1.000  H
  C312     1.0000 0.91430  0.12430  0.38690  Biso   1.000  C
  C313     1.0000 0.75750  0.02060  0.31400  Biso   1.000  C
  C314     1.0000 0.77950  0.09220  0.31420  Biso   1.000  C
  C315     1.0000 0.75270  0.15330  0.28420  Biso   1.000  C
  H228     1.0000 0.72230  0.14860  0.26220  Biso   1.000  H
  C316     1.0000 0.77240  0.22160  0.28790  Biso   1.000  C
  C317     1.0000 0.81840  0.22790  0.31930  Biso   1.000  C
  H229     1.0000 0.83140  0.27310  0.32080  Biso   1.000  H
  C318     1.0000 0.84430  0.16780  0.34790  Biso   1.000  C
  C319     1.0000 0.82410  0.09960  0.34420  Biso   1.000  C
  H230     1.0000 0.84160  0.05860  0.36270  Biso   1.000  H
  C320     1.0000 0.74370  0.28740  0.25560  Biso   1.000  C
  C321     1.0000 0.27790  0.52660  0.70310  Biso   1.000  C
  C322     1.0000 0.21280  0.44380  0.63060  Biso   1.000  C
  H231     1.0000 0.20840  0.39620  0.61060  Biso   1.000  H
  H232     1.0000 0.20040  0.44470  0.65980  Biso   1.000  H
  H233     1.0000 0.19880  0.48030  0.59700  Biso   1.000  H
  C323     1.0000 0.29580  0.41620  0.67070  Biso   1.000  C
  H234     1.0000 0.28490  0.37120  0.64690  Biso   1.000  H
  H235     1.0000 0.31070  0.44360  0.65180  Biso   1.000  H
  H236     1.0000 0.31600  0.40530  0.71590  Biso   1.000  H
  C324     1.0000 0.36840  0.63520  0.09160  Biso   1.000  C
  C325     1.0000 0.44660  0.65740  0.17660  Biso   1.000  C
  H237     1.0000 0.46300  0.68460  0.21650  Biso   1.000  H
  H238     1.0000 0.45330  0.60610  0.18500  Biso   1.000  H
  H239     1.0000 0.45450  0.67380  0.14410  Biso   1.000  H
  C326     1.0000 0.38660  0.71850  0.18870  Biso   1.000  C
  H240     1.0000 0.41210  0.73630  0.22690  Biso   1.000  H
  H241     1.0000 0.37090  0.75910  0.16110  Biso   1.000  H
  H242     1.0000 0.36790  0.69290  0.20200  Biso   1.000  H
  C327     1.0000 0.36460  0.40170  0.01810  Biso   1.000  C
  C328     1.0000 0.32430  0.28710  0.98990  Biso   1.000  C
  H243     1.0000 0.32790  0.23500  0.99660  Biso   1.000  H
  H244     1.0000 0.30620  0.30530  0.00780  Biso   1.000  H
  H245     1.0000 0.31070  0.29760  0.94380  Biso   1.000  H
  C329     1.0000 0.40860  0.29400  0.07340  Biso   1.000  C
  H246     1.0000 0.40680  0.24130  0.07530  Biso   1.000  H
  H247     1.0000 0.43160  0.30670  0.06330  Biso   1.000  H
  H248     1.0000 0.41490  0.31440  0.11510  Biso   1.000  H
  N37      1.0000 0.41060  0.83960  0.08790  Biso   1.000  N
  N38      1.0000 0.88890  0.17540  0.38840  Biso   1.000  N
  N39      1.0000 0.25950  0.45910  0.66720  Biso   1.000  N
  N40      1.0000 0.40010  0.66880  0.15260  Biso   1.000  N
  N41      1.0000 0.36710  0.32240  0.02280  Biso   1.000  N
  O103     1.0000 0.64610  0.88710  0.20200  Biso   1.000  O
  O104     1.0000 0.63520  0.95640  0.28220  Biso   1.000  O
  O105     1.0000 0.24502  0.70670  0.87360  Biso   1.000  O
  O106     1.0000 0.31396  0.66420  0.91100  Biso   1.000  O
  O107     1.0000 0.27500  0.94440  0.09150  Biso   1.000  O
  O108     1.0000 0.22069  0.90460  0.99770  Biso   1.000  O
  O109     1.0000 0.11920  0.04410  0.55920  Biso   1.000  O
  O110     1.0000 0.11010  0.12510  0.61970  Biso   1.000  O
  O111     1.0000 0.71806  0.01220  0.27940  Biso   1.000  O
  O112     1.0000 0.78253  0.96890  0.34990  Biso   1.000  O
  O113     1.0000 0.76070  0.34670  0.25560  Biso   1.000  O
  O114     1.0000 0.70290  0.27760  0.22810  Biso   1.000  O
  O115     1.0000 0.31590  0.54270  0.74630  Biso   1.000  O
  O116     1.0000 0.37910  0.59050  0.06060  Biso   1.000  O
  O117     1.0000 0.32830  0.43320  0.98840  Biso   1.000  O
  C330     1.0000 0.42610  0.86800  0.30820  Biso   1.000  C
  C331     1.0000 0.44220  0.84880  0.38140  Biso   1.000  C
  C332     1.0000 0.48760  0.84510  0.41770  Biso   1.000  C
  C333     1.0000 0.48450  0.84470  0.11520  Biso   1.000  C
  C334     1.0000 0.49970  0.85900  0.17470  Biso   1.000  C
  C335     1.0000 0.45240  0.87000  0.28100  Biso   1.000  C
  C336     1.0000 0.43590  0.83110  0.07460  Biso   1.000  C
  H249     1.0000 0.42350  0.84060  0.39900  Biso   1.000  H
  H250     1.0000 0.49920  0.84280  0.03670  Biso   1.000  H
  H251     1.0000 0.48050  0.86310  0.19220  Biso   1.000  H
  H252     1.0000 0.44140  0.87740  0.23620  Biso   1.000  H
  N42      1.0000 0.39510  0.66240  0.36070  Biso   1.000  N
  O118     1.0000 0.35840  0.84580  0.25410  Biso   1.000  O
  O119     1.0000 0.35740  0.84930  0.22350  Biso   1.000  O
  Cd22     1.0000 0.21000  0.39419  0.30913  Biso   1.000  Cd
  Cd23     1.0000 0.82140  0.11803  0.82400  Biso   1.000  Cd
  Cd24     1.0000 0.82262  0.05066  0.96342  Biso   1.000  Cd
  C337     1.0000 0.12110  0.39090  0.24590  Biso   1.000  C
  C338     1.0000 0.07130  0.39540  0.21780  Biso   1.000  C
  C339     1.0000 0.05060  0.33850  0.18110  Biso   1.000  C
  H253     1.0000 0.06780  0.29950  0.18070  Biso   1.000  H
  C340     1.0000 0.00660  0.33160  0.14390  Biso   1.000  C
  H254     1.0000 0.99370  0.28990  0.11890  Biso   1.000  H
  C341     1.0000 0.98100  0.39360  0.14580  Biso   1.000  C
  C342     1.0000 0.00140  0.44940  0.18200  Biso   1.000  C
  H255     1.0000 0.98530  0.48950  0.18360  Biso   1.000  H
  C343     1.0000 0.04640  0.45090  0.21810  Biso   1.000  C
  H256     1.0000 0.05990  0.49200  0.24360  Biso   1.000  H
  C344     1.0000 0.93300  0.38740  0.11160  Biso   1.000  C
  C345     1.0000 0.78540  0.20900  0.91040  Biso   1.000  C
  C346     1.0000 0.80280  0.26890  0.96100  Biso   1.000  C
  C347     1.0000 0.84780  0.27980  0.99910  Biso   1.000  C
  H257     1.0000 0.86690  0.25070  0.99110  Biso   1.000  H
  C348     1.0000 0.86520  0.33120  0.04770  Biso   1.000  C
  C349     1.0000 0.83580  0.37240  0.06120  Biso   1.000  C
  H258     1.0000 0.84650  0.40580  0.09580  Biso   1.000  H
  C350     1.0000 0.79100  0.36270  0.02270  Biso   1.000  C
  C351     1.0000 0.77440  0.31210  0.97340  Biso   1.000  C
  H259     1.0000 0.74410  0.30650  0.94820  Biso   1.000  H
  C352     1.0000 0.76050  0.40800  0.03930  Biso   1.000  C
  C353     1.0000 0.59590  0.58750  0.56380  Biso   1.000  C
  C354     1.0000 0.54800  0.59750  0.51500  Biso   1.000  C
  C355     1.0000 0.52300  0.65530  0.52460  Biso   1.000  C
  H260     1.0000 0.53620  0.68490  0.56170  Biso   1.000  H
  C356     1.0000 0.48150  0.66640  0.48090  Biso   1.000  C
  H261     1.0000 0.46610  0.70590  0.48540  Biso   1.000  H
  C357     1.0000 0.46170  0.61980  0.42980  Biso   1.000  C
  C358     1.0000 0.48490  0.56370  0.42160  Biso   1.000  C
  H262     1.0000 0.47150  0.53260  0.38560  Biso   1.000  H
  C359     1.0000 0.52690  0.55410  0.46570  Biso   1.000  C
  H263     1.0000 0.54170  0.51410  0.46070  Biso   1.000  H
  C360     1.0000 0.41430  0.62430  0.38690  Biso   1.000  C
  C361     1.0000 0.25750  0.52060  0.31400  Biso   1.000  C
  C362     1.0000 0.27950  0.59220  0.31420  Biso   1.000  C
  C363     1.0000 0.25270  0.65330  0.28420  Biso   1.000  C
  H264     1.0000 0.22230  0.64860  0.26220  Biso   1.000  H
  C364     1.0000 0.27240  0.72160  0.28790  Biso   1.000  C
  C365     1.0000 0.31840  0.72790  0.31930  Biso   1.000  C
  H265     1.0000 0.33140  0.77310  0.32080  Biso   1.000  H
  C366     1.0000 0.34430  0.66780  0.34790  Biso   1.000  C
  C367     1.0000 0.32410  0.59960  0.34420  Biso   1.000  C
  H266     1.0000 0.34160  0.55860  0.36270  Biso   1.000  H
  C368     1.0000 0.24370  0.78740  0.25560  Biso   1.000  C
  C369     1.0000 0.77790  0.02660  0.70310  Biso   1.000  C
  C370     1.0000 0.71280  0.94380  0.63060  Biso   1.000  C
  H267     1.0000 0.70840  0.89620  0.61060  Biso   1.000  H
  H268     1.0000 0.70040  0.94470  0.65980  Biso   1.000  H
  H269     1.0000 0.69880  0.98030  0.59700  Biso   1.000  H
  C371     1.0000 0.79580  0.91620  0.67070  Biso   1.000  C
  H270     1.0000 0.78490  0.87120  0.64690  Biso   1.000  H
  H271     1.0000 0.81070  0.94360  0.65180  Biso   1.000  H
  H272     1.0000 0.81600  0.90530  0.71590  Biso   1.000  H
  C372     1.0000 0.86840  0.13520  0.09160  Biso   1.000  C
  C373     1.0000 0.94660  0.15740  0.17660  Biso   1.000  C
  H273     1.0000 0.96300  0.18460  0.21650  Biso   1.000  H
  H274     1.0000 0.95330  0.10610  0.18500  Biso   1.000  H
  H275     1.0000 0.95450  0.17380  0.14410  Biso   1.000  H
  C374     1.0000 0.88660  0.21850  0.18870  Biso   1.000  C
  H276     1.0000 0.91210  0.23630  0.22690  Biso   1.000  H
  H277     1.0000 0.87090  0.25910  0.16110  Biso   1.000  H
  H278     1.0000 0.86790  0.19290  0.20200  Biso   1.000  H
  C375     1.0000 0.86460  0.90170  0.01810  Biso   1.000  C
  C376     1.0000 0.82430  0.78710  0.98990  Biso   1.000  C
  H279     1.0000 0.82790  0.73500  0.99660  Biso   1.000  H
  H280     1.0000 0.80620  0.80530  0.00780  Biso   1.000  H
  H281     1.0000 0.81070  0.79760  0.94380  Biso   1.000  H
  C377     1.0000 0.90860  0.79400  0.07340  Biso   1.000  C
  H282     1.0000 0.90680  0.74130  0.07530  Biso   1.000  H
  H283     1.0000 0.93160  0.80670  0.06330  Biso   1.000  H
  H284     1.0000 0.91490  0.81440  0.11510  Biso   1.000  H
  N43      1.0000 0.91060  0.33960  0.08790  Biso   1.000  N
  N44      1.0000 0.38890  0.67540  0.38840  Biso   1.000  N
  N45      1.0000 0.75950  0.95910  0.66720  Biso   1.000  N
  N46      1.0000 0.90010  0.16880  0.15260  Biso   1.000  N
  N47      1.0000 0.86710  0.82240  0.02280  Biso   1.000  N
  O120     1.0000 0.14610  0.38710  0.20200  Biso   1.000  O
  O121     1.0000 0.13520  0.45640  0.28220  Biso   1.000  O
  O122     1.0000 0.74502  0.20670  0.87360  Biso   1.000  O
  O123     1.0000 0.81396  0.16420  0.91100  Biso   1.000  O
  O124     1.0000 0.77500  0.44440  0.09150  Biso   1.000  O
  O125     1.0000 0.72069  0.40460  0.99770  Biso   1.000  O
  O126     1.0000 0.61920  0.54410  0.55920  Biso   1.000  O
  O127     1.0000 0.61010  0.62510  0.61970  Biso   1.000  O
  O128     1.0000 0.21806  0.51220  0.27940  Biso   1.000  O
  O129     1.0000 0.28253  0.46890  0.34990  Biso   1.000  O
  O130     1.0000 0.26070  0.84670  0.25560  Biso   1.000  O
  O131     1.0000 0.20290  0.77760  0.22810  Biso   1.000  O
  O132     1.0000 0.81590  0.04270  0.74630  Biso   1.000  O
  O133     1.0000 0.87910  0.09050  0.06060  Biso   1.000  O
  O134     1.0000 0.82830  0.93320  0.98840  Biso   1.000  O
  C378     1.0000 0.92610  0.36800  0.30820  Biso   1.000  C
  C379     1.0000 0.94220  0.34880  0.38140  Biso   1.000  C
  C380     1.0000 0.98760  0.34510  0.41770  Biso   1.000  C
  C381     1.0000 0.98450  0.34470  0.11520  Biso   1.000  C
  C382     1.0000 0.99970  0.35900  0.17470  Biso   1.000  C
  C383     1.0000 0.95240  0.37000  0.28100  Biso   1.000  C
  C384     1.0000 0.93590  0.33110  0.07460  Biso   1.000  C
  H285     1.0000 0.92350  0.34060  0.39900  Biso   1.000  H
  H286     1.0000 0.99920  0.34280  0.03670  Biso   1.000  H
  H287     1.0000 0.98050  0.36310  0.19220  Biso   1.000  H
  H288     1.0000 0.94140  0.37740  0.23620  Biso   1.000  H
  N48      1.0000 0.89510  0.16240  0.36070  Biso   1.000  N
  O135     1.0000 0.85840  0.34580  0.25410  Biso   1.000  O
  O136     1.0000 0.85740  0.34930  0.22350  Biso   1.000  O
