data_image0
_cell_length_a       35.319
_cell_length_b       18.2332
_cell_length_c       23.452
_cell_angle_alpha    90
_cell_angle_beta     120.172
_cell_angle_gamma    90

_symmetry_space_group_name_H-M    "P 1"
_symmetry_int_tables_number       1

loop_
  _symmetry_equiv_pos_as_xyz
  'x, y, z'

loop_
  _atom_site_label
  _atom_site_occupancy
  _atom_site_fract_x
  _atom_site_fract_y
  _atom_site_fract_z
  _atom_site_thermal_displace_type
  _atom_site_B_iso_or_equiv
  _atom_site_type_symbol
  N1       1.0000 0.59120  0.85050  0.91000  Biso   1.000  N
  N2       1.0000 0.11040  0.16590  0.62180  Biso   1.000  N
  N3       1.0000 0.87810  0.17030  0.04320  Biso   1.000  N
  N4       1.0000 0.89890  0.82760  0.15490  Biso   1.000  N
  N5       1.0000 0.74040  0.47100  0.33550  Biso   1.000  N
  O1       1.0000 0.35540  0.84500  0.75630  Biso   1.000  O
  O2       1.0000 0.36480  0.94510  0.71410  Biso   1.000  O
  O3       1.0000 0.35950  0.88100  0.70890  Biso   1.000  O
  O4       1.0000 0.78116  0.91070  0.00950  Biso   1.000  O
  O5       1.0000 0.72624  0.95040  0.91320  Biso   1.000  O
  O6       1.0000 0.68713  0.66100  0.07930  Biso   1.000  O
  O7       1.0000 0.75564  0.70240  0.12000  Biso   1.000  O
  O8       1.0000 0.88167  0.03560  0.45370  Biso   1.000  O
  O9       1.0000 0.88817  0.12160  0.39240  Biso   1.000  O
  O10      1.0000 0.21847  0.96940  0.64520  Biso   1.000  O
  O11      1.0000 0.28268  0.00930  0.72270  Biso   1.000  O
  O12      1.0000 0.29669  0.26850  0.78970  Biso   1.000  O
  O13      1.0000 0.23902  0.34130  0.75310  Biso   1.000  O
  O14      1.0000 0.83200  0.06990  0.00140  Biso   1.000  O
  O15      1.0000 0.87850  0.90540  0.06900  Biso   1.000  O
  O16      1.0000 0.69210  0.54900  0.25540  Biso   1.000  O
  C1       1.0000 0.37890  0.88880  0.75470  Biso   1.000  C
  C2       1.0000 0.42770  0.87710  0.79760  Biso   1.000  C
  C3       1.0000 0.44470  0.81680  0.83870  Biso   1.000  C
  H1       1.0000 0.42420  0.78280  0.83590  Biso   1.000  H
  C4       1.0000 0.48810  0.80020  0.88350  Biso   1.000  C
  H2       1.0000 0.49640  0.76210  0.91390  Biso   1.000  H
  C5       1.0000 0.51760  0.84580  0.87850  Biso   1.000  C
  C6       1.0000 0.50390  0.89960  0.83070  Biso   1.000  C
  H3       1.0000 0.52430  0.92480  0.82420  Biso   1.000  H
  C7       1.0000 0.56710  0.88610  0.88270  Biso   1.000  C
  C8       1.0000 0.45930  0.91610  0.79190  Biso   1.000  C
  H4       1.0000 0.45070  0.95420  0.76160  Biso   1.000  H
  C9       1.0000 0.56580  0.83200  0.92080  Biso   1.000  C
  C10      1.0000 0.74120  0.91300  0.96580  Biso   1.000  C
  C11      1.0000 0.71030  0.86690  0.97680  Biso   1.000  C
  C12      1.0000 0.72660  0.81270  0.02500  Biso   1.000  C
  H5       1.0000 0.75660  0.80570  0.05090  Biso   1.000  H
  C13      1.0000 0.69830  0.76920  0.03450  Biso   1.000  C
  C14      1.0000 0.65330  0.78090  0.99750  Biso   1.000  C
  H6       1.0000 0.63420  0.75210  0.00440  Biso   1.000  H
  C15      1.0000 0.63700  0.83670  0.94970  Biso   1.000  C
  C16      1.0000 0.66500  0.87780  0.93850  Biso   1.000  C
  H7       1.0000 0.65400  0.91310  0.90540  Biso   1.000  H
  C17      1.0000 0.71550  0.70700  0.08240  Biso   1.000  C
  C18      1.0000 0.90330  0.08130  0.44280  Biso   1.000  C
  C19      1.0000 0.95140  0.09060  0.49310  Biso   1.000  C
  C20      1.0000 0.97220  0.04460  0.54510  Biso   1.000  C
  H8       1.0000 0.95650  0.00800  0.55180  Biso   1.000  H
  C21      1.0000 0.01690  0.05200  0.58850  Biso   1.000  C
  H9       1.0000 0.03110  0.01880  0.62300  Biso   1.000  H
  C22      1.0000 0.04030  0.10750  0.58110  Biso   1.000  C
  C23      1.0000 0.01830  0.15460  0.52970  Biso   1.000  C
  H10      1.0000 0.03310  0.19440  0.52540  Biso   1.000  H
  C24      1.0000 0.97480  0.14490  0.48420  Biso   1.000  C
  H11      1.0000 0.96110  0.17520  0.44730  Biso   1.000  H
  C25      1.0000 0.08800  0.11250  0.62460  Biso   1.000  C
  C26      1.0000 0.24310  0.01990  0.68560  Biso   1.000  C
  C27      1.0000 0.22170  0.08920  0.68780  Biso   1.000  C
  C28      1.0000 0.17630  0.09470  0.65520  Biso   1.000  C
  H12      1.0000 0.15920  0.05450  0.63230  Biso   1.000  H
  C29      1.0000 0.15630  0.15960  0.65670  Biso   1.000  C
  C30      1.0000 0.18220  0.22090  0.68870  Biso   1.000  C
  H13      1.0000 0.16910  0.26550  0.68780  Biso   1.000  H
  C31      1.0000 0.22760  0.21490  0.72190  Biso   1.000  C
  C32      1.0000 0.24750  0.14950  0.72130  Biso   1.000  C
  H14      1.0000 0.27790  0.14600  0.74310  Biso   1.000  H
  C33      1.0000 0.25640  0.27860  0.75780  Biso   1.000  C
  C34      1.0000 0.86670  0.10920  0.01070  Biso   1.000  C
  C35      1.0000 0.85650  0.19800  0.08070  Biso   1.000  C
  H15      1.0000 0.86840  0.24510  0.09940  Biso   1.000  H
  H16      1.0000 0.82550  0.20230  0.05120  Biso   1.000  H
  H17      1.0000 0.86200  0.16410  0.11540  Biso   1.000  H
  C36      1.0000 0.91340  0.21680  0.04750  Biso   1.000  C
  H18      1.0000 0.91590  0.26020  0.07220  Biso   1.000  H
  H19      1.0000 0.94050  0.19020  0.06910  Biso   1.000  H
  H20      1.0000 0.90680  0.23020  0.00390  Biso   1.000  H
  C37      1.0000 0.86960  0.86050  0.10010  Biso   1.000  C
  C38      1.0000 0.94590  0.84100  0.18140  Biso   1.000  C
  H21      1.0000 0.96250  0.81330  0.22120  Biso   1.000  H
  H22      1.0000 0.95380  0.82620  0.14960  Biso   1.000  H
  H23      1.0000 0.95190  0.89230  0.19070  Biso   1.000  H
  C39      1.0000 0.88500  0.77670  0.18890  Biso   1.000  C
  H24      1.0000 0.91030  0.75830  0.22780  Biso   1.000  H
  H25      1.0000 0.86630  0.80180  0.20120  Biso   1.000  H
  H26      1.0000 0.86930  0.73660  0.16010  Biso   1.000  H
  C40      1.0000 0.73030  0.53160  0.29820  Biso   1.000  C
  C41      1.0000 0.70730  0.42420  0.33240  Biso   1.000  C
  H27      1.0000 0.72070  0.38440  0.36290  Biso   1.000  H
  H28      1.0000 0.69020  0.40500  0.28850  Biso   1.000  H
  H29      1.0000 0.68870  0.45140  0.34370  Biso   1.000  H
  C42      1.0000 0.78600  0.44980  0.37880  Biso   1.000  C
  H30      1.0000 0.78710  0.40580  0.40210  Biso   1.000  H
  H31      1.0000 0.80110  0.48840  0.40990  Biso   1.000  H
  H32      1.0000 0.79970  0.44130  0.35300  Biso   1.000  H
  Cd1      1.0000 0.29150  0.89689  0.68628  Biso   1.000  Cd
  Cd2      1.0000 0.82324  0.95339  0.97106  Biso   1.000  Cd
  Cd3      1.0000 0.68266  0.61959  0.17018  Biso   1.000  Cd
  H33      1.0000 0.10200  0.06700  0.65000  Biso   1.000  H
  O17      1.0000 0.35490  0.87430  0.79330  Biso   1.000  O
  N6       1.0000 0.09120  0.35050  0.91000  Biso   1.000  N
  N7       1.0000 0.61040  0.66590  0.62180  Biso   1.000  N
  N8       1.0000 0.37810  0.67030  0.04320  Biso   1.000  N
  N9       1.0000 0.39890  0.32760  0.15490  Biso   1.000  N
  N10      1.0000 0.24040  0.97100  0.33550  Biso   1.000  N
  O18      1.0000 0.85540  0.34500  0.75630  Biso   1.000  O
  O19      1.0000 0.86480  0.44510  0.71410  Biso   1.000  O
  O20      1.0000 0.85950  0.38100  0.70890  Biso   1.000  O
  O21      1.0000 0.28116  0.41070  0.00950  Biso   1.000  O
  O22      1.0000 0.22624  0.45040  0.91320  Biso   1.000  O
  O23      1.0000 0.18713  0.16100  0.07930  Biso   1.000  O
  O24      1.0000 0.25564  0.20240  0.12000  Biso   1.000  O
  O25      1.0000 0.38167  0.53560  0.45370  Biso   1.000  O
  O26      1.0000 0.38817  0.62160  0.39240  Biso   1.000  O
  O27      1.0000 0.71847  0.46940  0.64520  Biso   1.000  O
  O28      1.0000 0.78268  0.50930  0.72270  Biso   1.000  O
  O29      1.0000 0.79669  0.76850  0.78970  Biso   1.000  O
  O30      1.0000 0.73902  0.84130  0.75310  Biso   1.000  O
  O31      1.0000 0.33200  0.56990  0.00140  Biso   1.000  O
  O32      1.0000 0.37850  0.40540  0.06900  Biso   1.000  O
  O33      1.0000 0.19210  0.04900  0.25540  Biso   1.000  O
  C43      1.0000 0.87890  0.38880  0.75470  Biso   1.000  C
  C44      1.0000 0.92770  0.37710  0.79760  Biso   1.000  C
  C45      1.0000 0.94470  0.31680  0.83870  Biso   1.000  C
  H34      1.0000 0.92420  0.28280  0.83590  Biso   1.000  H
  C46      1.0000 0.98810  0.30020  0.88350  Biso   1.000  C
  H35      1.0000 0.99640  0.26210  0.91390  Biso   1.000  H
  C47      1.0000 0.01760  0.34580  0.87850  Biso   1.000  C
  C48      1.0000 0.00390  0.39960  0.83070  Biso   1.000  C
  H36      1.0000 0.02430  0.42480  0.82420  Biso   1.000  H
  C49      1.0000 0.06710  0.38610  0.88270  Biso   1.000  C
  C50      1.0000 0.95930  0.41610  0.79190  Biso   1.000  C
  H37      1.0000 0.95070  0.45420  0.76160  Biso   1.000  H
  C51      1.0000 0.06580  0.33200  0.92080  Biso   1.000  C
  C52      1.0000 0.24120  0.41300  0.96580  Biso   1.000  C
  C53      1.0000 0.21030  0.36690  0.97680  Biso   1.000  C
  C54      1.0000 0.22660  0.31270  0.02500  Biso   1.000  C
  H38      1.0000 0.25660  0.30570  0.05090  Biso   1.000  H
  C55      1.0000 0.19830  0.26920  0.03450  Biso   1.000  C
  C56      1.0000 0.15330  0.28090  0.99750  Biso   1.000  C
  H39      1.0000 0.13420  0.25210  0.00440  Biso   1.000  H
  C57      1.0000 0.13700  0.33670  0.94970  Biso   1.000  C
  C58      1.0000 0.16500  0.37780  0.93850  Biso   1.000  C
  H40      1.0000 0.15400  0.41310  0.90540  Biso   1.000  H
  C59      1.0000 0.21550  0.20700  0.08240  Biso   1.000  C
  C60      1.0000 0.40330  0.58130  0.44280  Biso   1.000  C
  C61      1.0000 0.45140  0.59060  0.49310  Biso   1.000  C
  C62      1.0000 0.47220  0.54460  0.54510  Biso   1.000  C
  H41      1.0000 0.45650  0.50800  0.55180  Biso   1.000  H
  C63      1.0000 0.51690  0.55200  0.58850  Biso   1.000  C
  H42      1.0000 0.53110  0.51880  0.62300  Biso   1.000  H
  C64      1.0000 0.54030  0.60750  0.58110  Biso   1.000  C
  C65      1.0000 0.51830  0.65460  0.52970  Biso   1.000  C
  H43      1.0000 0.53310  0.69440  0.52540  Biso   1.000  H
  C66      1.0000 0.47480  0.64490  0.48420  Biso   1.000  C
  H44      1.0000 0.46110  0.67520  0.44730  Biso   1.000  H
  C67      1.0000 0.58800  0.61250  0.62460  Biso   1.000  C
  C68      1.0000 0.74310  0.51990  0.68560  Biso   1.000  C
  C69      1.0000 0.72170  0.58920  0.68780  Biso   1.000  C
  C70      1.0000 0.67630  0.59470  0.65520  Biso   1.000  C
  H45      1.0000 0.65920  0.55450  0.63230  Biso   1.000  H
  C71      1.0000 0.65630  0.65960  0.65670  Biso   1.000  C
  C72      1.0000 0.68220  0.72090  0.68870  Biso   1.000  C
  H46      1.0000 0.66910  0.76550  0.68780  Biso   1.000  H
  C73      1.0000 0.72760  0.71490  0.72190  Biso   1.000  C
  C74      1.0000 0.74750  0.64950  0.72130  Biso   1.000  C
  H47      1.0000 0.77790  0.64600  0.74310  Biso   1.000  H
  C75      1.0000 0.75640  0.77860  0.75780  Biso   1.000  C
  C76      1.0000 0.36670  0.60920  0.01070  Biso   1.000  C
  C77      1.0000 0.35650  0.69800  0.08070  Biso   1.000  C
  H48      1.0000 0.36840  0.74510  0.09940  Biso   1.000  H
  H49      1.0000 0.32550  0.70230  0.05120  Biso   1.000  H
  H50      1.0000 0.36200  0.66410  0.11540  Biso   1.000  H
  C78      1.0000 0.41340  0.71680  0.04750  Biso   1.000  C
  H51      1.0000 0.41590  0.76020  0.07220  Biso   1.000  H
  H52      1.0000 0.44050  0.69020  0.06910  Biso   1.000  H
  H53      1.0000 0.40680  0.73020  0.00390  Biso   1.000  H
  C79      1.0000 0.36960  0.36050  0.10010  Biso   1.000  C
  C80      1.0000 0.44590  0.34100  0.18140  Biso   1.000  C
  H54      1.0000 0.46250  0.31330  0.22120  Biso   1.000  H
  H55      1.0000 0.45380  0.32620  0.14960  Biso   1.000  H
  H56      1.0000 0.45190  0.39230  0.19070  Biso   1.000  H
  C81      1.0000 0.38500  0.27670  0.18890  Biso   1.000  C
  H57      1.0000 0.41030  0.25830  0.22780  Biso   1.000  H
  H58      1.0000 0.36630  0.30180  0.20120  Biso   1.000  H
  H59      1.0000 0.36930  0.23660  0.16010  Biso   1.000  H
  C82      1.0000 0.23030  0.03160  0.29820  Biso   1.000  C
  C83      1.0000 0.20730  0.92420  0.33240  Biso   1.000  C
  H60      1.0000 0.22070  0.88440  0.36290  Biso   1.000  H
  H61      1.0000 0.19020  0.90500  0.28850  Biso   1.000  H
  H62      1.0000 0.18870  0.95140  0.34370  Biso   1.000  H
  C84      1.0000 0.28600  0.94980  0.37880  Biso   1.000  C
  H63      1.0000 0.28710  0.90580  0.40210  Biso   1.000  H
  H64      1.0000 0.30110  0.98840  0.40990  Biso   1.000  H
  H65      1.0000 0.29970  0.94130  0.35300  Biso   1.000  H
  Cd4      1.0000 0.79150  0.39689  0.68628  Biso   1.000  Cd
  Cd5      1.0000 0.32324  0.45339  0.97106  Biso   1.000  Cd
  Cd6      1.0000 0.18266  0.11959  0.17018  Biso   1.000  Cd
  H66      1.0000 0.60200  0.56700  0.65000  Biso   1.000  H
  O34      1.0000 0.85490  0.37430  0.79330  Biso   1.000  O
  N11      1.0000 0.40880  0.85050  0.59000  Biso   1.000  N
  N12      1.0000 0.88960  0.16590  0.87820  Biso   1.000  N
  N13      1.0000 0.12190  0.17030  0.45680  Biso   1.000  N
  N14      1.0000 0.10110  0.82760  0.34510  Biso   1.000  N
  N15      1.0000 0.25960  0.47100  0.16450  Biso   1.000  N
  O35      1.0000 0.64460  0.84500  0.74370  Biso   1.000  O
  O36      1.0000 0.63520  0.94510  0.78590  Biso   1.000  O
  O37      1.0000 0.64050  0.88100  0.79110  Biso   1.000  O
  O38      1.0000 0.21884  0.91070  0.49050  Biso   1.000  O
  O39      1.0000 0.27376  0.95040  0.58680  Biso   1.000  O
  O40      1.0000 0.31287  0.66100  0.42070  Biso   1.000  O
  O41      1.0000 0.24436  0.70240  0.38000  Biso   1.000  O
  O42      1.0000 0.11833  0.03560  0.04630  Biso   1.000  O
  O43      1.0000 0.11183  0.12160  0.10760  Biso   1.000  O
  O44      1.0000 0.78153  0.96940  0.85480  Biso   1.000  O
  O45      1.0000 0.71732  0.00930  0.77730  Biso   1.000  O
  O46      1.0000 0.70331  0.26850  0.71030  Biso   1.000  O
  O47      1.0000 0.76098  0.34130  0.74690  Biso   1.000  O
  O48      1.0000 0.16800  0.06990  0.49860  Biso   1.000  O
  O49      1.0000 0.12150  0.90540  0.43100  Biso   1.000  O
  O50      1.0000 0.30790  0.54900  0.24460  Biso   1.000  O
  C85      1.0000 0.62110  0.88880  0.74530  Biso   1.000  C
  C86      1.0000 0.57230  0.87710  0.70240  Biso   1.000  C
  C87      1.0000 0.55530  0.81680  0.66130  Biso   1.000  C
  H67      1.0000 0.57580  0.78280  0.66410  Biso   1.000  H
  C88      1.0000 0.51190  0.80020  0.61650  Biso   1.000  C
  H68      1.0000 0.50360  0.76210  0.58610  Biso   1.000  H
  C89      1.0000 0.48240  0.84580  0.62150  Biso   1.000  C
  C90      1.0000 0.49610  0.89960  0.66930  Biso   1.000  C
  H69      1.0000 0.47570  0.92480  0.67580  Biso   1.000  H
  C91      1.0000 0.43290  0.88610  0.61730  Biso   1.000  C
  C92      1.0000 0.54070  0.91610  0.70810  Biso   1.000  C
  H70      1.0000 0.54930  0.95420  0.73840  Biso   1.000  H
  C93      1.0000 0.43420  0.83200  0.57920  Biso   1.000  C
  C94      1.0000 0.25880  0.91300  0.53420  Biso   1.000  C
  C95      1.0000 0.28970  0.86690  0.52320  Biso   1.000  C
  C96      1.0000 0.27340  0.81270  0.47500  Biso   1.000  C
  H71      1.0000 0.24340  0.80570  0.44910  Biso   1.000  H
  C97      1.0000 0.30170  0.76920  0.46550  Biso   1.000  C
  C98      1.0000 0.34670  0.78090  0.50250  Biso   1.000  C
  H72      1.0000 0.36580  0.75210  0.49560  Biso   1.000  H
  C99      1.0000 0.36300  0.83670  0.55030  Biso   1.000  C
  C100     1.0000 0.33500  0.87780  0.56150  Biso   1.000  C
  H73      1.0000 0.34600  0.91310  0.59460  Biso   1.000  H
  C101     1.0000 0.28450  0.70700  0.41760  Biso   1.000  C
  C102     1.0000 0.09670  0.08130  0.05720  Biso   1.000  C
  C103     1.0000 0.04860  0.09060  0.00690  Biso   1.000  C
  C104     1.0000 0.02780  0.04460  0.95490  Biso   1.000  C
  H74      1.0000 0.04350  0.00800  0.94820  Biso   1.000  H
  C105     1.0000 0.98310  0.05200  0.91150  Biso   1.000  C
  H75      1.0000 0.96890  0.01880  0.87700  Biso   1.000  H
  C106     1.0000 0.95970  0.10750  0.91890  Biso   1.000  C
  C107     1.0000 0.98170  0.15460  0.97030  Biso   1.000  C
  H76      1.0000 0.96690  0.19440  0.97460  Biso   1.000  H
  C108     1.0000 0.02520  0.14490  0.01580  Biso   1.000  C
  H77      1.0000 0.03890  0.17520  0.05270  Biso   1.000  H
  C109     1.0000 0.91200  0.11250  0.87540  Biso   1.000  C
  C110     1.0000 0.75690  0.01990  0.81440  Biso   1.000  C
  C111     1.0000 0.77830  0.08920  0.81220  Biso   1.000  C
  C112     1.0000 0.82370  0.09470  0.84480  Biso   1.000  C
  H78      1.0000 0.84080  0.05450  0.86770  Biso   1.000  H
  C113     1.0000 0.84370  0.15960  0.84330  Biso   1.000  C
  C114     1.0000 0.81780  0.22090  0.81130  Biso   1.000  C
  H79      1.0000 0.83090  0.26550  0.81220  Biso   1.000  H
  C115     1.0000 0.77240  0.21490  0.77810  Biso   1.000  C
  C116     1.0000 0.75250  0.14950  0.77870  Biso   1.000  C
  H80      1.0000 0.72210  0.14600  0.75690  Biso   1.000  H
  C117     1.0000 0.74360  0.27860  0.74220  Biso   1.000  C
  C118     1.0000 0.13330  0.10920  0.48930  Biso   1.000  C
  C119     1.0000 0.14350  0.19800  0.41930  Biso   1.000  C
  H81      1.0000 0.13160  0.24510  0.40060  Biso   1.000  H
  H82      1.0000 0.17450  0.20230  0.44880  Biso   1.000  H
  H83      1.0000 0.13800  0.16410  0.38460  Biso   1.000  H
  C120     1.0000 0.08660  0.21680  0.45250  Biso   1.000  C
  H84      1.0000 0.08410  0.26020  0.42780  Biso   1.000  H
  H85      1.0000 0.05950  0.19020  0.43090  Biso   1.000  H
  H86      1.0000 0.09320  0.23020  0.49610  Biso   1.000  H
  C121     1.0000 0.13040  0.86050  0.39990  Biso   1.000  C
  C122     1.0000 0.05410  0.84100  0.31860  Biso   1.000  C
  H87      1.0000 0.03750  0.81330  0.27880  Biso   1.000  H
  H88      1.0000 0.04620  0.82620  0.35040  Biso   1.000  H
  H89      1.0000 0.04810  0.89230  0.30930  Biso   1.000  H
  C123     1.0000 0.11500  0.77670  0.31110  Biso   1.000  C
  H90      1.0000 0.08970  0.75830  0.27220  Biso   1.000  H
  H91      1.0000 0.13370  0.80180  0.29880  Biso   1.000  H
  H92      1.0000 0.13070  0.73660  0.33990  Biso   1.000  H
  C124     1.0000 0.26970  0.53160  0.20180  Biso   1.000  C
  C125     1.0000 0.29270  0.42420  0.16760  Biso   1.000  C
  H93      1.0000 0.27930  0.38440  0.13710  Biso   1.000  H
  H94      1.0000 0.30980  0.40500  0.21150  Biso   1.000  H
  H95      1.0000 0.31130  0.45140  0.15630  Biso   1.000  H
  C126     1.0000 0.21400  0.44980  0.12120  Biso   1.000  C
  H96      1.0000 0.21290  0.40580  0.09790  Biso   1.000  H
  H97      1.0000 0.19890  0.48840  0.09010  Biso   1.000  H
  H98      1.0000 0.20030  0.44130  0.14700  Biso   1.000  H
  Cd7      1.0000 0.70850  0.89689  0.81372  Biso   1.000  Cd
  Cd8      1.0000 0.17676  0.95339  0.52894  Biso   1.000  Cd
  Cd9      1.0000 0.31734  0.61959  0.32982  Biso   1.000  Cd
  H99      1.0000 0.89800  0.06700  0.85000  Biso   1.000  H
  O51      1.0000 0.64510  0.87430  0.70670  Biso   1.000  O
  N16      1.0000 0.90880  0.35050  0.59000  Biso   1.000  N
  N17      1.0000 0.38960  0.66590  0.87820  Biso   1.000  N
  N18      1.0000 0.62190  0.67030  0.45680  Biso   1.000  N
  N19      1.0000 0.60110  0.32760  0.34510  Biso   1.000  N
  N20      1.0000 0.75960  0.97100  0.16450  Biso   1.000  N
  O52      1.0000 0.14460  0.34500  0.74370  Biso   1.000  O
  O53      1.0000 0.13520  0.44510  0.78590  Biso   1.000  O
  O54      1.0000 0.14050  0.38100  0.79110  Biso   1.000  O
  O55      1.0000 0.71884  0.41070  0.49050  Biso   1.000  O
  O56      1.0000 0.77376  0.45040  0.58680  Biso   1.000  O
  O57      1.0000 0.81287  0.16100  0.42070  Biso   1.000  O
  O58      1.0000 0.74436  0.20240  0.38000  Biso   1.000  O
  O59      1.0000 0.61833  0.53560  0.04630  Biso   1.000  O
  O60      1.0000 0.61183  0.62160  0.10760  Biso   1.000  O
  O61      1.0000 0.28153  0.46940  0.85480  Biso   1.000  O
  O62      1.0000 0.21732  0.50930  0.77730  Biso   1.000  O
  O63      1.0000 0.20331  0.76850  0.71030  Biso   1.000  O
  O64      1.0000 0.26098  0.84130  0.74690  Biso   1.000  O
  O65      1.0000 0.66800  0.56990  0.49860  Biso   1.000  O
  O66      1.0000 0.62150  0.40540  0.43100  Biso   1.000  O
  O67      1.0000 0.80790  0.04900  0.24460  Biso   1.000  O
  C127     1.0000 0.12110  0.38880  0.74530  Biso   1.000  C
  C128     1.0000 0.07230  0.37710  0.70240  Biso   1.000  C
  C129     1.0000 0.05530  0.31680  0.66130  Biso   1.000  C
  H100     1.0000 0.07580  0.28280  0.66410  Biso   1.000  H
  C130     1.0000 0.01190  0.30020  0.61650  Biso   1.000  C
  H101     1.0000 0.00360  0.26210  0.58610  Biso   1.000  H
  C131     1.0000 0.98240  0.34580  0.62150  Biso   1.000  C
  C132     1.0000 0.99610  0.39960  0.66930  Biso   1.000  C
  H102     1.0000 0.97570  0.42480  0.67580  Biso   1.000  H
  C133     1.0000 0.93290  0.38610  0.61730  Biso   1.000  C
  C134     1.0000 0.04070  0.41610  0.70810  Biso   1.000  C
  H103     1.0000 0.04930  0.45420  0.73840  Biso   1.000  H
  C135     1.0000 0.93420  0.33200  0.57920  Biso   1.000  C
  C136     1.0000 0.75880  0.41300  0.53420  Biso   1.000  C
  C137     1.0000 0.78970  0.36690  0.52320  Biso   1.000  C
  C138     1.0000 0.77340  0.31270  0.47500  Biso   1.000  C
  H104     1.0000 0.74340  0.30570  0.44910  Biso   1.000  H
  C139     1.0000 0.80170  0.26920  0.46550  Biso   1.000  C
  C140     1.0000 0.84670  0.28090  0.50250  Biso   1.000  C
  H105     1.0000 0.86580  0.25210  0.49560  Biso   1.000  H
  C141     1.0000 0.86300  0.33670  0.55030  Biso   1.000  C
  C142     1.0000 0.83500  0.37780  0.56150  Biso   1.000  C
  H106     1.0000 0.84600  0.41310  0.59460  Biso   1.000  H
  C143     1.0000 0.78450  0.20700  0.41760  Biso   1.000  C
  C144     1.0000 0.59670  0.58130  0.05720  Biso   1.000  C
  C145     1.0000 0.54860  0.59060  0.00690  Biso   1.000  C
  C146     1.0000 0.52780  0.54460  0.95490  Biso   1.000  C
  H107     1.0000 0.54350  0.50800  0.94820  Biso   1.000  H
  C147     1.0000 0.48310  0.55200  0.91150  Biso   1.000  C
  H108     1.0000 0.46890  0.51880  0.87700  Biso   1.000  H
  C148     1.0000 0.45970  0.60750  0.91890  Biso   1.000  C
  C149     1.0000 0.48170  0.65460  0.97030  Biso   1.000  C
  H109     1.0000 0.46690  0.69440  0.97460  Biso   1.000  H
  C150     1.0000 0.52520  0.64490  0.01580  Biso   1.000  C
  H110     1.0000 0.53890  0.67520  0.05270  Biso   1.000  H
  C151     1.0000 0.41200  0.61250  0.87540  Biso   1.000  C
  C152     1.0000 0.25690  0.51990  0.81440  Biso   1.000  C
  C153     1.0000 0.27830  0.58920  0.81220  Biso   1.000  C
  C154     1.0000 0.32370  0.59470  0.84480  Biso   1.000  C
  H111     1.0000 0.34080  0.55450  0.86770  Biso   1.000  H
  C155     1.0000 0.34370  0.65960  0.84330  Biso   1.000  C
  C156     1.0000 0.31780  0.72090  0.81130  Biso   1.000  C
  H112     1.0000 0.33090  0.76550  0.81220  Biso   1.000  H
  C157     1.0000 0.27240  0.71490  0.77810  Biso   1.000  C
  C158     1.0000 0.25250  0.64950  0.77870  Biso   1.000  C
  H113     1.0000 0.22210  0.64600  0.75690  Biso   1.000  H
  C159     1.0000 0.24360  0.77860  0.74220  Biso   1.000  C
  C160     1.0000 0.63330  0.60920  0.48930  Biso   1.000  C
  C161     1.0000 0.64350  0.69800  0.41930  Biso   1.000  C
  H114     1.0000 0.63160  0.74510  0.40060  Biso   1.000  H
  H115     1.0000 0.67450  0.70230  0.44880  Biso   1.000  H
  H116     1.0000 0.63800  0.66410  0.38460  Biso   1.000  H
  C162     1.0000 0.58660  0.71680  0.45250  Biso   1.000  C
  H117     1.0000 0.58410  0.76020  0.42780  Biso   1.000  H
  H118     1.0000 0.55950  0.69020  0.43090  Biso   1.000  H
  H119     1.0000 0.59320  0.73020  0.49610  Biso   1.000  H
  C163     1.0000 0.63040  0.36050  0.39990  Biso   1.000  C
  C164     1.0000 0.55410  0.34100  0.31860  Biso   1.000  C
  H120     1.0000 0.53750  0.31330  0.27880  Biso   1.000  H
  H121     1.0000 0.54620  0.32620  0.35040  Biso   1.000  H
  H122     1.0000 0.54810  0.39230  0.30930  Biso   1.000  H
  C165     1.0000 0.61500  0.27670  0.31110  Biso   1.000  C
  H123     1.0000 0.58970  0.25830  0.27220  Biso   1.000  H
  H124     1.0000 0.63370  0.30180  0.29880  Biso   1.000  H
  H125     1.0000 0.63070  0.23660  0.33990  Biso   1.000  H
  C166     1.0000 0.76970  0.03160  0.20180  Biso   1.000  C
  C167     1.0000 0.79270  0.92420  0.16760  Biso   1.000  C
  H126     1.0000 0.77930  0.88440  0.13710  Biso   1.000  H
  H127     1.0000 0.80980  0.90500  0.21150  Biso   1.000  H
  H128     1.0000 0.81130  0.95140  0.15630  Biso   1.000  H
  C168     1.0000 0.71400  0.94980  0.12120  Biso   1.000  C
  H129     1.0000 0.71290  0.90580  0.09790  Biso   1.000  H
  H130     1.0000 0.69890  0.98840  0.09010  Biso   1.000  H
  H131     1.0000 0.70030  0.94130  0.14700  Biso   1.000  H
  Cd10     1.0000 0.20850  0.39689  0.81372  Biso   1.000  Cd
  Cd11     1.0000 0.67676  0.45339  0.52894  Biso   1.000  Cd
  Cd12     1.0000 0.81734  0.11959  0.32982  Biso   1.000  Cd
  H132     1.0000 0.39800  0.56700  0.85000  Biso   1.000  H
  O68      1.0000 0.14510  0.37430  0.70670  Biso   1.000  O
  N21      1.0000 0.40880  0.14950  0.09000  Biso   1.000  N
  N22      1.0000 0.88960  0.83410  0.37820  Biso   1.000  N
  N23      1.0000 0.12190  0.82970  0.95680  Biso   1.000  N
  N24      1.0000 0.10110  0.17240  0.84510  Biso   1.000  N
  N25      1.0000 0.25960  0.52900  0.66450  Biso   1.000  N
  O69      1.0000 0.64460  0.15500  0.24370  Biso   1.000  O
  O70      1.0000 0.63520  0.05490  0.28590  Biso   1.000  O
  O71      1.0000 0.64050  0.11900  0.29110  Biso   1.000  O
  O72      1.0000 0.21884  0.08930  0.99050  Biso   1.000  O
  O73      1.0000 0.27376  0.04960  0.08680  Biso   1.000  O
  O74      1.0000 0.31287  0.33900  0.92070  Biso   1.000  O
  O75      1.0000 0.24436  0.29760  0.88000  Biso   1.000  O
  O76      1.0000 0.11833  0.96440  0.54630  Biso   1.000  O
  O77      1.0000 0.11183  0.87840  0.60760  Biso   1.000  O
  O78      1.0000 0.78153  0.03060  0.35480  Biso   1.000  O
  O79      1.0000 0.71732  0.99070  0.27730  Biso   1.000  O
  O80      1.0000 0.70331  0.73150  0.21030  Biso   1.000  O
  O81      1.0000 0.76098  0.65870  0.24690  Biso   1.000  O
  O82      1.0000 0.16800  0.93010  0.99860  Biso   1.000  O
  O83      1.0000 0.12150  0.09460  0.93100  Biso   1.000  O
  O84      1.0000 0.30790  0.45100  0.74460  Biso   1.000  O
  C169     1.0000 0.62110  0.11120  0.24530  Biso   1.000  C
  C170     1.0000 0.57230  0.12290  0.20240  Biso   1.000  C
  C171     1.0000 0.55530  0.18320  0.16130  Biso   1.000  C
  H133     1.0000 0.57580  0.21720  0.16410  Biso   1.000  H
  C172     1.0000 0.51190  0.19980  0.11650  Biso   1.000  C
  H134     1.0000 0.50360  0.23790  0.08610  Biso   1.000  H
  C173     1.0000 0.48240  0.15420  0.12150  Biso   1.000  C
  C174     1.0000 0.49610  0.10040  0.16930  Biso   1.000  C
  H135     1.0000 0.47570  0.07520  0.17580  Biso   1.000  H
  C175     1.0000 0.43290  0.11390  0.11730  Biso   1.000  C
  C176     1.0000 0.54070  0.08390  0.20810  Biso   1.000  C
  H136     1.0000 0.54930  0.04580  0.23840  Biso   1.000  H
  C177     1.0000 0.43420  0.16800  0.07920  Biso   1.000  C
  C178     1.0000 0.25880  0.08700  0.03420  Biso   1.000  C
  C179     1.0000 0.28970  0.13310  0.02320  Biso   1.000  C
  C180     1.0000 0.27340  0.18730  0.97500  Biso   1.000  C
  H137     1.0000 0.24340  0.19430  0.94910  Biso   1.000  H
  C181     1.0000 0.30170  0.23080  0.96550  Biso   1.000  C
  C182     1.0000 0.34670  0.21910  0.00250  Biso   1.000  C
  H138     1.0000 0.36580  0.24790  0.99560  Biso   1.000  H
  C183     1.0000 0.36300  0.16330  0.05030  Biso   1.000  C
  C184     1.0000 0.33500  0.12220  0.06150  Biso   1.000  C
  H139     1.0000 0.34600  0.08690  0.09460  Biso   1.000  H
  C185     1.0000 0.28450  0.29300  0.91760  Biso   1.000  C
  C186     1.0000 0.09670  0.91870  0.55720  Biso   1.000  C
  C187     1.0000 0.04860  0.90940  0.50690  Biso   1.000  C
  C188     1.0000 0.02780  0.95540  0.45490  Biso   1.000  C
  H140     1.0000 0.04350  0.99200  0.44820  Biso   1.000  H
  C189     1.0000 0.98310  0.94800  0.41150  Biso   1.000  C
  H141     1.0000 0.96890  0.98120  0.37700  Biso   1.000  H
  C190     1.0000 0.95970  0.89250  0.41890  Biso   1.000  C
  C191     1.0000 0.98170  0.84540  0.47030  Biso   1.000  C
  H142     1.0000 0.96690  0.80560  0.47460  Biso   1.000  H
  C192     1.0000 0.02520  0.85510  0.51580  Biso   1.000  C
  H143     1.0000 0.03890  0.82480  0.55270  Biso   1.000  H
  C193     1.0000 0.91200  0.88750  0.37540  Biso   1.000  C
  C194     1.0000 0.75690  0.98010  0.31440  Biso   1.000  C
  C195     1.0000 0.77830  0.91080  0.31220  Biso   1.000  C
  C196     1.0000 0.82370  0.90530  0.34480  Biso   1.000  C
  H144     1.0000 0.84080  0.94550  0.36770  Biso   1.000  H
  C197     1.0000 0.84370  0.84040  0.34330  Biso   1.000  C
  C198     1.0000 0.81780  0.77910  0.31130  Biso   1.000  C
  H145     1.0000 0.83090  0.73450  0.31220  Biso   1.000  H
  C199     1.0000 0.77240  0.78510  0.27810  Biso   1.000  C
  C200     1.0000 0.75250  0.85050  0.27870  Biso   1.000  C
  H146     1.0000 0.72210  0.85400  0.25690  Biso   1.000  H
  C201     1.0000 0.74360  0.72140  0.24220  Biso   1.000  C
  C202     1.0000 0.13330  0.89080  0.98930  Biso   1.000  C
  C203     1.0000 0.14350  0.80200  0.91930  Biso   1.000  C
  H147     1.0000 0.13160  0.75490  0.90060  Biso   1.000  H
  H148     1.0000 0.17450  0.79770  0.94880  Biso   1.000  H
  H149     1.0000 0.13800  0.83590  0.88460  Biso   1.000  H
  C204     1.0000 0.08660  0.78320  0.95250  Biso   1.000  C
  H150     1.0000 0.08410  0.73980  0.92780  Biso   1.000  H
  H151     1.0000 0.05950  0.80980  0.93090  Biso   1.000  H
  H152     1.0000 0.09320  0.76980  0.99610  Biso   1.000  H
  C205     1.0000 0.13040  0.13950  0.89990  Biso   1.000  C
  C206     1.0000 0.05410  0.15900  0.81860  Biso   1.000  C
  H153     1.0000 0.03750  0.18670  0.77880  Biso   1.000  H
  H154     1.0000 0.04620  0.17380  0.85040  Biso   1.000  H
  H155     1.0000 0.04810  0.10770  0.80930  Biso   1.000  H
  C207     1.0000 0.11500  0.22330  0.81110  Biso   1.000  C
  H156     1.0000 0.08970  0.24170  0.77220  Biso   1.000  H
  H157     1.0000 0.13370  0.19820  0.79880  Biso   1.000  H
  H158     1.0000 0.13070  0.26340  0.83990  Biso   1.000  H
  C208     1.0000 0.26970  0.46840  0.70180  Biso   1.000  C
  C209     1.0000 0.29270  0.57580  0.66760  Biso   1.000  C
  H159     1.0000 0.27930  0.61560  0.63710  Biso   1.000  H
  H160     1.0000 0.30980  0.59500  0.71150  Biso   1.000  H
  H161     1.0000 0.31130  0.54860  0.65630  Biso   1.000  H
  C210     1.0000 0.21400  0.55020  0.62120  Biso   1.000  C
  H162     1.0000 0.21290  0.59420  0.59790  Biso   1.000  H
  H163     1.0000 0.19890  0.51160  0.59010  Biso   1.000  H
  H164     1.0000 0.20030  0.55870  0.64700  Biso   1.000  H
  Cd13     1.0000 0.70850  0.10311  0.31372  Biso   1.000  Cd
  Cd14     1.0000 0.17676  0.04661  0.02894  Biso   1.000  Cd
  Cd15     1.0000 0.31734  0.38041  0.82982  Biso   1.000  Cd
  H165     1.0000 0.89800  0.93300  0.35000  Biso   1.000  H
  O85      1.0000 0.64510  0.12570  0.20670  Biso   1.000  O
  N26      1.0000 0.90880  0.64950  0.09000  Biso   1.000  N
  N27      1.0000 0.38960  0.33410  0.37820  Biso   1.000  N
  N28      1.0000 0.62190  0.32970  0.95680  Biso   1.000  N
  N29      1.0000 0.60110  0.67240  0.84510  Biso   1.000  N
  N30      1.0000 0.75960  0.02900  0.66450  Biso   1.000  N
  O86      1.0000 0.14460  0.65500  0.24370  Biso   1.000  O
  O87      1.0000 0.13520  0.55490  0.28590  Biso   1.000  O
  O88      1.0000 0.14050  0.61900  0.29110  Biso   1.000  O
  O89      1.0000 0.71884  0.58930  0.99050  Biso   1.000  O
  O90      1.0000 0.77376  0.54960  0.08680  Biso   1.000  O
  O91      1.0000 0.81287  0.83900  0.92070  Biso   1.000  O
  O92      1.0000 0.74436  0.79760  0.88000  Biso   1.000  O
  O93      1.0000 0.61833  0.46440  0.54630  Biso   1.000  O
  O94      1.0000 0.61183  0.37840  0.60760  Biso   1.000  O
  O95      1.0000 0.28153  0.53060  0.35480  Biso   1.000  O
  O96      1.0000 0.21732  0.49070  0.27730  Biso   1.000  O
  O97      1.0000 0.20331  0.23150  0.21030  Biso   1.000  O
  O98      1.0000 0.26098  0.15870  0.24690  Biso   1.000  O
  O99      1.0000 0.66800  0.43010  0.99860  Biso   1.000  O
  O100     1.0000 0.62150  0.59460  0.93100  Biso   1.000  O
  O101     1.0000 0.80790  0.95100  0.74460  Biso   1.000  O
  C211     1.0000 0.12110  0.61120  0.24530  Biso   1.000  C
  C212     1.0000 0.07230  0.62290  0.20240  Biso   1.000  C
  C213     1.0000 0.05530  0.68320  0.16130  Biso   1.000  C
  H166     1.0000 0.07580  0.71720  0.16410  Biso   1.000  H
  C214     1.0000 0.01190  0.69980  0.11650  Biso   1.000  C
  H167     1.0000 0.00360  0.73790  0.08610  Biso   1.000  H
  C215     1.0000 0.98240  0.65420  0.12150  Biso   1.000  C
  C216     1.0000 0.99610  0.60040  0.16930  Biso   1.000  C
  H168     1.0000 0.97570  0.57520  0.17580  Biso   1.000  H
  C217     1.0000 0.93290  0.61390  0.11730  Biso   1.000  C
  C218     1.0000 0.04070  0.58390  0.20810  Biso   1.000  C
  H169     1.0000 0.04930  0.54580  0.23840  Biso   1.000  H
  C219     1.0000 0.93420  0.66800  0.07920  Biso   1.000  C
  C220     1.0000 0.75880  0.58700  0.03420  Biso   1.000  C
  C221     1.0000 0.78970  0.63310  0.02320  Biso   1.000  C
  C222     1.0000 0.77340  0.68730  0.97500  Biso   1.000  C
  H170     1.0000 0.74340  0.69430  0.94910  Biso   1.000  H
  C223     1.0000 0.80170  0.73080  0.96550  Biso   1.000  C
  C224     1.0000 0.84670  0.71910  0.00250  Biso   1.000  C
  H171     1.0000 0.86580  0.74790  0.99560  Biso   1.000  H
  C225     1.0000 0.86300  0.66330  0.05030  Biso   1.000  C
  C226     1.0000 0.83500  0.62220  0.06150  Biso   1.000  C
  H172     1.0000 0.84600  0.58690  0.09460  Biso   1.000  H
  C227     1.0000 0.78450  0.79300  0.91760  Biso   1.000  C
  C228     1.0000 0.59670  0.41870  0.55720  Biso   1.000  C
  C229     1.0000 0.54860  0.40940  0.50690  Biso   1.000  C
  C230     1.0000 0.52780  0.45540  0.45490  Biso   1.000  C
  H173     1.0000 0.54350  0.49200  0.44820  Biso   1.000  H
  C231     1.0000 0.48310  0.44800  0.41150  Biso   1.000  C
  H174     1.0000 0.46890  0.48120  0.37700  Biso   1.000  H
  C232     1.0000 0.45970  0.39250  0.41890  Biso   1.000  C
  C233     1.0000 0.48170  0.34540  0.47030  Biso   1.000  C
  H175     1.0000 0.46690  0.30560  0.47460  Biso   1.000  H
  C234     1.0000 0.52520  0.35510  0.51580  Biso   1.000  C
  H176     1.0000 0.53890  0.32480  0.55270  Biso   1.000  H
  C235     1.0000 0.41200  0.38750  0.37540  Biso   1.000  C
  C236     1.0000 0.25690  0.48010  0.31440  Biso   1.000  C
  C237     1.0000 0.27830  0.41080  0.31220  Biso   1.000  C
  C238     1.0000 0.32370  0.40530  0.34480  Biso   1.000  C
  H177     1.0000 0.34080  0.44550  0.36770  Biso   1.000  H
  C239     1.0000 0.34370  0.34040  0.34330  Biso   1.000  C
  C240     1.0000 0.31780  0.27910  0.31130  Biso   1.000  C
  H178     1.0000 0.33090  0.23450  0.31220  Biso   1.000  H
  C241     1.0000 0.27240  0.28510  0.27810  Biso   1.000  C
  C242     1.0000 0.25250  0.35050  0.27870  Biso   1.000  C
  H179     1.0000 0.22210  0.35400  0.25690  Biso   1.000  H
  C243     1.0000 0.24360  0.22140  0.24220  Biso   1.000  C
  C244     1.0000 0.63330  0.39080  0.98930  Biso   1.000  C
  C245     1.0000 0.64350  0.30200  0.91930  Biso   1.000  C
  H180     1.0000 0.63160  0.25490  0.90060  Biso   1.000  H
  H181     1.0000 0.67450  0.29770  0.94880  Biso   1.000  H
  H182     1.0000 0.63800  0.33590  0.88460  Biso   1.000  H
  C246     1.0000 0.58660  0.28320  0.95250  Biso   1.000  C
  H183     1.0000 0.58410  0.23980  0.92780  Biso   1.000  H
  H184     1.0000 0.55950  0.30980  0.93090  Biso   1.000  H
  H185     1.0000 0.59320  0.26980  0.99610  Biso   1.000  H
  C247     1.0000 0.63040  0.63950  0.89990  Biso   1.000  C
  C248     1.0000 0.55410  0.65900  0.81860  Biso   1.000  C
  H186     1.0000 0.53750  0.68670  0.77880  Biso   1.000  H
  H187     1.0000 0.54620  0.67380  0.85040  Biso   1.000  H
  H188     1.0000 0.54810  0.60770  0.80930  Biso   1.000  H
  C249     1.0000 0.61500  0.72330  0.81110  Biso   1.000  C
  H189     1.0000 0.58970  0.74170  0.77220  Biso   1.000  H
  H190     1.0000 0.63370  0.69820  0.79880  Biso   1.000  H
  H191     1.0000 0.63070  0.76340  0.83990  Biso   1.000  H
  C250     1.0000 0.76970  0.96840  0.70180  Biso   1.000  C
  C251     1.0000 0.79270  0.07580  0.66760  Biso   1.000  C
  H192     1.0000 0.77930  0.11560  0.63710  Biso   1.000  H
  H193     1.0000 0.80980  0.09500  0.71150  Biso   1.000  H
  H194     1.0000 0.81130  0.04860  0.65630  Biso   1.000  H
  C252     1.0000 0.71400  0.05020  0.62120  Biso   1.000  C
  H195     1.0000 0.71290  0.09420  0.59790  Biso   1.000  H
  H196     1.0000 0.69890  0.01160  0.59010  Biso   1.000  H
  H197     1.0000 0.70030  0.05870  0.64700  Biso   1.000  H
  Cd16     1.0000 0.20850  0.60311  0.31372  Biso   1.000  Cd
  Cd17     1.0000 0.67676  0.54661  0.02894  Biso   1.000  Cd
  Cd18     1.0000 0.81734  0.88041  0.82982  Biso   1.000  Cd
  H198     1.0000 0.39800  0.43300  0.35000  Biso   1.000  H
  O102     1.0000 0.14510  0.62570  0.20670  Biso   1.000  O
  N31      1.0000 0.59120  0.14950  0.41000  Biso   1.000  N
  N32      1.0000 0.11040  0.83410  0.12180  Biso   1.000  N
  N33      1.0000 0.87810  0.82970  0.54320  Biso   1.000  N
  N34      1.0000 0.89890  0.17240  0.65490  Biso   1.000  N
  N35      1.0000 0.74040  0.52900  0.83550  Biso   1.000  N
  O103     1.0000 0.35540  0.15500  0.25630  Biso   1.000  O
  O104     1.0000 0.36480  0.05490  0.21410  Biso   1.000  O
  O105     1.0000 0.35950  0.11900  0.20890  Biso   1.000  O
  O106     1.0000 0.78116  0.08930  0.50950  Biso   1.000  O
  O107     1.0000 0.72624  0.04960  0.41320  Biso   1.000  O
  O108     1.0000 0.68713  0.33900  0.57930  Biso   1.000  O
  O109     1.0000 0.75564  0.29760  0.62000  Biso   1.000  O
  O110     1.0000 0.88167  0.96440  0.95370  Biso   1.000  O
  O111     1.0000 0.88817  0.87840  0.89240  Biso   1.000  O
  O112     1.0000 0.21847  0.03060  0.14520  Biso   1.000  O
  O113     1.0000 0.28268  0.99070  0.22270  Biso   1.000  O
  O114     1.0000 0.29669  0.73150  0.28970  Biso   1.000  O
  O115     1.0000 0.23902  0.65870  0.25310  Biso   1.000  O
  O116     1.0000 0.83200  0.93010  0.50140  Biso   1.000  O
  O117     1.0000 0.87850  0.09460  0.56900  Biso   1.000  O
  O118     1.0000 0.69210  0.45100  0.75540  Biso   1.000  O
  C253     1.0000 0.37890  0.11120  0.25470  Biso   1.000  C
  C254     1.0000 0.42770  0.12290  0.29760  Biso   1.000  C
  C255     1.0000 0.44470  0.18320  0.33870  Biso   1.000  C
  H199     1.0000 0.42420  0.21720  0.33590  Biso   1.000  H
  C256     1.0000 0.48810  0.19980  0.38350  Biso   1.000  C
  H200     1.0000 0.49640  0.23790  0.41390  Biso   1.000  H
  C257     1.0000 0.51760  0.15420  0.37850  Biso   1.000  C
  C258     1.0000 0.50390  0.10040  0.33070  Biso   1.000  C
  H201     1.0000 0.52430  0.07520  0.32420  Biso   1.000  H
  C259     1.0000 0.56710  0.11390  0.38270  Biso   1.000  C
  C260     1.0000 0.45930  0.08390  0.29190  Biso   1.000  C
  H202     1.0000 0.45070  0.04580  0.26160  Biso   1.000  H
  C261     1.0000 0.56580  0.16800  0.42080  Biso   1.000  C
  C262     1.0000 0.74120  0.08700  0.46580  Biso   1.000  C
  C263     1.0000 0.71030  0.13310  0.47680  Biso   1.000  C
  C264     1.0000 0.72660  0.18730  0.52500  Biso   1.000  C
  H203     1.0000 0.75660  0.19430  0.55090  Biso   1.000  H
  C265     1.0000 0.69830  0.23080  0.53450  Biso   1.000  C
  C266     1.0000 0.65330  0.21910  0.49750  Biso   1.000  C
  H204     1.0000 0.63420  0.24790  0.50440  Biso   1.000  H
  C267     1.0000 0.63700  0.16330  0.44970  Biso   1.000  C
  C268     1.0000 0.66500  0.12220  0.43850  Biso   1.000  C
  H205     1.0000 0.65400  0.08690  0.40540  Biso   1.000  H
  C269     1.0000 0.71550  0.29300  0.58240  Biso   1.000  C
  C270     1.0000 0.90330  0.91870  0.94280  Biso   1.000  C
  C271     1.0000 0.95140  0.90940  0.99310  Biso   1.000  C
  C272     1.0000 0.97220  0.95540  0.04510  Biso   1.000  C
  H206     1.0000 0.95650  0.99200  0.05180  Biso   1.000  H
  C273     1.0000 0.01690  0.94800  0.08850  Biso   1.000  C
  H207     1.0000 0.03110  0.98120  0.12300  Biso   1.000  H
  C274     1.0000 0.04030  0.89250  0.08110  Biso   1.000  C
  C275     1.0000 0.01830  0.84540  0.02970  Biso   1.000  C
  H208     1.0000 0.03310  0.80560  0.02540  Biso   1.000  H
  C276     1.0000 0.97480  0.85510  0.98420  Biso   1.000  C
  H209     1.0000 0.96110  0.82480  0.94730  Biso   1.000  H
  C277     1.0000 0.08800  0.88750  0.12460  Biso   1.000  C
  C278     1.0000 0.24310  0.98010  0.18560  Biso   1.000  C
  C279     1.0000 0.22170  0.91080  0.18780  Biso   1.000  C
  C280     1.0000 0.17630  0.90530  0.15520  Biso   1.000  C
  H210     1.0000 0.15920  0.94550  0.13230  Biso   1.000  H
  C281     1.0000 0.15630  0.84040  0.15670  Biso   1.000  C
  C282     1.0000 0.18220  0.77910  0.18870  Biso   1.000  C
  H211     1.0000 0.16910  0.73450  0.18780  Biso   1.000  H
  C283     1.0000 0.22760  0.78510  0.22190  Biso   1.000  C
  C284     1.0000 0.24750  0.85050  0.22130  Biso   1.000  C
  H212     1.0000 0.27790  0.85400  0.24310  Biso   1.000  H
  C285     1.0000 0.25640  0.72140  0.25780  Biso   1.000  C
  C286     1.0000 0.86670  0.89080  0.51070  Biso   1.000  C
  C287     1.0000 0.85650  0.80200  0.58070  Biso   1.000  C
  H213     1.0000 0.86840  0.75490  0.59940  Biso   1.000  H
  H214     1.0000 0.82550  0.79770  0.55120  Biso   1.000  H
  H215     1.0000 0.86200  0.83590  0.61540  Biso   1.000  H
  C288     1.0000 0.91340  0.78320  0.54750  Biso   1.000  C
  H216     1.0000 0.91590  0.73980  0.57220  Biso   1.000  H
  H217     1.0000 0.94050  0.80980  0.56910  Biso   1.000  H
  H218     1.0000 0.90680  0.76980  0.50390  Biso   1.000  H
  C289     1.0000 0.86960  0.13950  0.60010  Biso   1.000  C
  C290     1.0000 0.94590  0.15900  0.68140  Biso   1.000  C
  H219     1.0000 0.96250  0.18670  0.72120  Biso   1.000  H
  H220     1.0000 0.95380  0.17380  0.64960  Biso   1.000  H
  H221     1.0000 0.95190  0.10770  0.69070  Biso   1.000  H
  C291     1.0000 0.88500  0.22330  0.68890  Biso   1.000  C
  H222     1.0000 0.91030  0.24170  0.72780  Biso   1.000  H
  H223     1.0000 0.86630  0.19820  0.70120  Biso   1.000  H
  H224     1.0000 0.86930  0.26340  0.66010  Biso   1.000  H
  C292     1.0000 0.73030  0.46840  0.79820  Biso   1.000  C
  C293     1.0000 0.70730  0.57580  0.83240  Biso   1.000  C
  H225     1.0000 0.72070  0.61560  0.86290  Biso   1.000  H
  H226     1.0000 0.69020  0.59500  0.78850  Biso   1.000  H
  H227     1.0000 0.68870  0.54860  0.84370  Biso   1.000  H
  C294     1.0000 0.78600  0.55020  0.87880  Biso   1.000  C
  H228     1.0000 0.78710  0.59420  0.90210  Biso   1.000  H
  H229     1.0000 0.80110  0.51160  0.90990  Biso   1.000  H
  H230     1.0000 0.79970  0.55870  0.85300  Biso   1.000  H
  Cd19     1.0000 0.29150  0.10311  0.18628  Biso   1.000  Cd
  Cd20     1.0000 0.82324  0.04661  0.47106  Biso   1.000  Cd
  Cd21     1.0000 0.68266  0.38041  0.67018  Biso   1.000  Cd
  H231     1.0000 0.10200  0.93300  0.15000  Biso   1.000  H
  O119     1.0000 0.35490  0.12570  0.29330  Biso   1.000  O
  N36      1.0000 0.09120  0.64950  0.41000  Biso   1.000  N
  N37      1.0000 0.61040  0.33410  0.12180  Biso   1.000  N
  N38      1.0000 0.37810  0.32970  0.54320  Biso   1.000  N
  N39      1.0000 0.39890  0.67240  0.65490  Biso   1.000  N
  N40      1.0000 0.24040  0.02900  0.83550  Biso   1.000  N
  O120     1.0000 0.85540  0.65500  0.25630  Biso   1.000  O
  O121     1.0000 0.86480  0.55490  0.21410  Biso   1.000  O
  O122     1.0000 0.85950  0.61900  0.20890  Biso   1.000  O
  O123     1.0000 0.28116  0.58930  0.50950  Biso   1.000  O
  O124     1.0000 0.22624  0.54960  0.41320  Biso   1.000  O
  O125     1.0000 0.18713  0.83900  0.57930  Biso   1.000  O
  O126     1.0000 0.25564  0.79760  0.62000  Biso   1.000  O
  O127     1.0000 0.38167  0.46440  0.95370  Biso   1.000  O
  O128     1.0000 0.38817  0.37840  0.89240  Biso   1.000  O
  O129     1.0000 0.71847  0.53060  0.14520  Biso   1.000  O
  O130     1.0000 0.78268  0.49070  0.22270  Biso   1.000  O
  O131     1.0000 0.79669  0.23150  0.28970  Biso   1.000  O
  O132     1.0000 0.73902  0.15870  0.25310  Biso   1.000  O
  O133     1.0000 0.33200  0.43010  0.50140  Biso   1.000  O
  O134     1.0000 0.37850  0.59460  0.56900  Biso   1.000  O
  O135     1.0000 0.19210  0.95100  0.75540  Biso   1.000  O
  C295     1.0000 0.87890  0.61120  0.25470  Biso   1.000  C
  C296     1.0000 0.92770  0.62290  0.29760  Biso   1.000  C
  C297     1.0000 0.94470  0.68320  0.33870  Biso   1.000  C
  H232     1.0000 0.92420  0.71720  0.33590  Biso   1.000  H
  C298     1.0000 0.98810  0.69980  0.38350  Biso   1.000  C
  H233     1.0000 0.99640  0.73790  0.41390  Biso   1.000  H
  C299     1.0000 0.01760  0.65420  0.37850  Biso   1.000  C
  C300     1.0000 0.00390  0.60040  0.33070  Biso   1.000  C
  H234     1.0000 0.02430  0.57520  0.32420  Biso   1.000  H
  C301     1.0000 0.06710  0.61390  0.38270  Biso   1.000  C
  C302     1.0000 0.95930  0.58390  0.29190  Biso   1.000  C
  H235     1.0000 0.95070  0.54580  0.26160  Biso   1.000  H
  C303     1.0000 0.06580  0.66800  0.42080  Biso   1.000  C
  C304     1.0000 0.24120  0.58700  0.46580  Biso   1.000  C
  C305     1.0000 0.21030  0.63310  0.47680  Biso   1.000  C
  C306     1.0000 0.22660  0.68730  0.52500  Biso   1.000  C
  H236     1.0000 0.25660  0.69430  0.55090  Biso   1.000  H
  C307     1.0000 0.19830  0.73080  0.53450  Biso   1.000  C
  C308     1.0000 0.15330  0.71910  0.49750  Biso   1.000  C
  H237     1.0000 0.13420  0.74790  0.50440  Biso   1.000  H
  C309     1.0000 0.13700  0.66330  0.44970  Biso   1.000  C
  C310     1.0000 0.16500  0.62220  0.43850  Biso   1.000  C
  H238     1.0000 0.15400  0.58690  0.40540  Biso   1.000  H
  C311     1.0000 0.21550  0.79300  0.58240  Biso   1.000  C
  C312     1.0000 0.40330  0.41870  0.94280  Biso   1.000  C
  C313     1.0000 0.45140  0.40940  0.99310  Biso   1.000  C
  C314     1.0000 0.47220  0.45540  0.04510  Biso   1.000  C
  H239     1.0000 0.45650  0.49200  0.05180  Biso   1.000  H
  C315     1.0000 0.51690  0.44800  0.08850  Biso   1.000  C
  H240     1.0000 0.53110  0.48120  0.12300  Biso   1.000  H
  C316     1.0000 0.54030  0.39250  0.08110  Biso   1.000  C
  C317     1.0000 0.51830  0.34540  0.02970  Biso   1.000  C
  H241     1.0000 0.53310  0.30560  0.02540  Biso   1.000  H
  C318     1.0000 0.47480  0.35510  0.98420  Biso   1.000  C
  H242     1.0000 0.46110  0.32480  0.94730  Biso   1.000  H
  C319     1.0000 0.58800  0.38750  0.12460  Biso   1.000  C
  C320     1.0000 0.74310  0.48010  0.18560  Biso   1.000  C
  C321     1.0000 0.72170  0.41080  0.18780  Biso   1.000  C
  C322     1.0000 0.67630  0.40530  0.15520  Biso   1.000  C
  H243     1.0000 0.65920  0.44550  0.13230  Biso   1.000  H
  C323     1.0000 0.65630  0.34040  0.15670  Biso   1.000  C
  C324     1.0000 0.68220  0.27910  0.18870  Biso   1.000  C
  H244     1.0000 0.66910  0.23450  0.18780  Biso   1.000  H
  C325     1.0000 0.72760  0.28510  0.22190  Biso   1.000  C
  C326     1.0000 0.74750  0.35050  0.22130  Biso   1.000  C
  H245     1.0000 0.77790  0.35400  0.24310  Biso   1.000  H
  C327     1.0000 0.75640  0.22140  0.25780  Biso   1.000  C
  C328     1.0000 0.36670  0.39080  0.51070  Biso   1.000  C
  C329     1.0000 0.35650  0.30200  0.58070  Biso   1.000  C
  H246     1.0000 0.36840  0.25490  0.59940  Biso   1.000  H
  H247     1.0000 0.32550  0.29770  0.55120  Biso   1.000  H
  H248     1.0000 0.36200  0.33590  0.61540  Biso   1.000  H
  C330     1.0000 0.41340  0.28320  0.54750  Biso   1.000  C
  H249     1.0000 0.41590  0.23980  0.57220  Biso   1.000  H
  H250     1.0000 0.44050  0.30980  0.56910  Biso   1.000  H
  H251     1.0000 0.40680  0.26980  0.50390  Biso   1.000  H
  C331     1.0000 0.36960  0.63950  0.60010  Biso   1.000  C
  C332     1.0000 0.44590  0.65900  0.68140  Biso   1.000  C
  H252     1.0000 0.46250  0.68670  0.72120  Biso   1.000  H
  H253     1.0000 0.45380  0.67380  0.64960  Biso   1.000  H
  H254     1.0000 0.45190  0.60770  0.69070  Biso   1.000  H
  C333     1.0000 0.38500  0.72330  0.68890  Biso   1.000  C
  H255     1.0000 0.41030  0.74170  0.72780  Biso   1.000  H
  H256     1.0000 0.36630  0.69820  0.70120  Biso   1.000  H
  H257     1.0000 0.36930  0.76340  0.66010  Biso   1.000  H
  C334     1.0000 0.23030  0.96840  0.79820  Biso   1.000  C
  C335     1.0000 0.20730  0.07580  0.83240  Biso   1.000  C
  H258     1.0000 0.22070  0.11560  0.86290  Biso   1.000  H
  H259     1.0000 0.19020  0.09500  0.78850  Biso   1.000  H
  H260     1.0000 0.18870  0.04860  0.84370  Biso   1.000  H
  C336     1.0000 0.28600  0.05020  0.87880  Biso   1.000  C
  H261     1.0000 0.28710  0.09420  0.90210  Biso   1.000  H
  H262     1.0000 0.30110  0.01160  0.90990  Biso   1.000  H
  H263     1.0000 0.29970  0.05870  0.85300  Biso   1.000  H
  Cd22     1.0000 0.79150  0.60311  0.18628  Biso   1.000  Cd
  Cd23     1.0000 0.32324  0.54661  0.47106  Biso   1.000  Cd
  Cd24     1.0000 0.18266  0.88041  0.67018  Biso   1.000  Cd
  H264     1.0000 0.60200  0.43300  0.15000  Biso   1.000  H
  O136     1.0000 0.85490  0.62570  0.29330  Biso   1.000  O
