data_image0
_cell_length_a       26.9668
_cell_length_b       26.9668
_cell_length_c       26.9668
_cell_angle_alpha    64.432
_cell_angle_beta     82.1352
_cell_angle_gamma    115.568

_symmetry_space_group_name_H-M    P 1
_symmetry_int_tables_number       1

loop_
  _symmetry_equiv_pos_as_xyz
  'x, y, z'

loop_
  _atom_site_label
  _atom_site_occupancy
  _atom_site_fract_x
  _atom_site_fract_y
  _atom_site_fract_z
  _atom_site_thermal_displace_type
  _atom_site_B_iso_or_equiv
  _atom_site_type_symbol
  Cu1      1.0000 0.00757  0.05120  0.26711  Biso   1.000  Cu
  Cu2      1.0000 0.00342  0.06381  0.35939  Biso   1.000  Cu
  Cu3      1.0000 0.68169  0.94880  0.04363  Biso   1.000  Cu
  Cu4      1.0000 0.57680  0.93619  0.06039  Biso   1.000  Cu
  Cu5      1.0000 0.95637  0.27468  0.99243  Biso   1.000  Cu
  Cu6      1.0000 0.93961  0.36281  0.99658  Biso   1.000  Cu
  Cu7      1.0000 0.73289  0.72532  0.31831  Biso   1.000  Cu
  Cu8      1.0000 0.64061  0.63719  0.42320  Biso   1.000  Cu
  Cu9      1.0000 0.99243  0.94880  0.73289  Biso   1.000  Cu
  Cu10     1.0000 0.99658  0.93619  0.64061  Biso   1.000  Cu
  Cu11     1.0000 0.31831  0.05120  0.95637  Biso   1.000  Cu
  Cu12     1.0000 0.42320  0.06381  0.93961  Biso   1.000  Cu
  Cu13     1.0000 0.04363  0.72532  0.00757  Biso   1.000  Cu
  Cu14     1.0000 0.06039  0.63719  0.00342  Biso   1.000  Cu
  Cu15     1.0000 0.26711  0.27468  0.68169  Biso   1.000  Cu
  Cu16     1.0000 0.35939  0.36281  0.57680  Biso   1.000  Cu
  Cu17     1.0000 0.27498  0.31452  0.96046  Biso   1.000  Cu
  Cu18     1.0000 0.36523  0.42327  0.94196  Biso   1.000  Cu
  Cu19     1.0000 0.72502  0.68548  0.03954  Biso   1.000  Cu
  Cu20     1.0000 0.63477  0.57673  0.05804  Biso   1.000  Cu
  Cu21     1.0000 0.96046  0.23544  0.72502  Biso   1.000  Cu
  Cu22     1.0000 0.94196  0.30719  0.63477  Biso   1.000  Cu
  Cu23     1.0000 0.03954  0.76456  0.27498  Biso   1.000  Cu
  Cu24     1.0000 0.05804  0.69281  0.36523  Biso   1.000  Cu
  Si1      1.0000 0.88944  0.60797  0.85921  Biso   1.000  Si
  Si2      1.0000 0.53282  0.39203  0.71853  Biso   1.000  Si
  Si3      1.0000 0.28147  0.74865  0.11056  Biso   1.000  Si
  Si4      1.0000 0.14079  0.25135  0.46718  Biso   1.000  Si
  Si5      1.0000 0.11056  0.39203  0.14079  Biso   1.000  Si
  Si6      1.0000 0.46718  0.60797  0.28147  Biso   1.000  Si
  Si7      1.0000 0.71853  0.25135  0.88944  Biso   1.000  Si
  Si8      1.0000 0.85921  0.74865  0.53282  Biso   1.000  Si
  Si9      1.0000 0.60929  0.75826  0.85103  Biso   1.000  Si
  Si10     1.0000 0.39071  0.24174  0.14897  Biso   1.000  Si
  Si11     1.0000 0.85103  0.46032  0.39071  Biso   1.000  Si
  Si12     1.0000 0.14897  0.53968  0.60929  Biso   1.000  Si
  H1       1.0000 0.52800  0.24680  0.93360  Biso   1.000  H
  H2       1.0000 0.50090  0.38050  0.93580  Biso   1.000  H
  H3       1.0000 0.36300  0.21420  0.96720  Biso   1.000  H
  H4       1.0000 0.82950  0.86930  0.35180  Biso   1.000  H
  H5       1.0000 0.67980  0.75830  0.50070  Biso   1.000  H
  H6       1.0000 0.82150  0.91880  0.47170  Biso   1.000  H
  H7       1.0000 0.04040  0.92230  0.45810  Biso   1.000  H
  H8       1.0000 0.05370  0.77830  0.46320  Biso   1.000  H
  H9       1.0000 0.05510  0.90840  0.31530  Biso   1.000  H
  H10      1.0000 0.94750  0.78960  0.66110  Biso   1.000  H
  H11      1.0000 0.90110  0.72340  0.76310  Biso   1.000  H
  H12      1.0000 0.96960  0.61760  0.76500  Biso   1.000  H
  H13      1.0000 0.01670  0.68350  0.66280  Biso   1.000  H
  H14      1.0000 0.93120  0.54440  0.87040  Biso   1.000  H
  H15      1.0000 0.90250  0.53140  0.93290  Biso   1.000  H
  H16      1.0000 0.96530  0.59570  0.88620  Biso   1.000  H
  H17      1.0000 0.92570  0.68720  0.88470  Biso   1.000  H
  H18      1.0000 0.86100  0.62770  0.93270  Biso   1.000  H
  H19      1.0000 0.86970  0.68110  0.87040  Biso   1.000  H
  H20      1.0000 0.83650  0.51300  0.82790  Biso   1.000  H
  H21      1.0000 0.74330  0.43730  0.84240  Biso   1.000  H
  H22      1.0000 0.67130  0.48920  0.93630  Biso   1.000  H
  H23      1.0000 0.76510  0.56730  0.91680  Biso   1.000  H
  H24      1.0000 0.59910  0.83220  0.73710  Biso   1.000  H
  H25      1.0000 0.62190  0.83880  0.64450  Biso   1.000  H
  H26      1.0000 0.72330  0.77410  0.68480  Biso   1.000  H
  H27      1.0000 0.69630  0.76130  0.77720  Biso   1.000  H
  H28      1.0000 0.81960  0.75320  0.71880  Biso   1.000  H
  H29      1.0000 0.68370  0.61950  0.87960  Biso   1.000  H
  H30      1.0000 0.81860  0.78580  0.85120  Biso   1.000  H
  H31      1.0000 0.77890  0.13070  0.03980  Biso   1.000  H
  H32      1.0000 0.74100  0.24170  0.07850  Biso   1.000  H
  H33      1.0000 0.60950  0.08120  0.09730  Biso   1.000  H
  H34      1.0000 0.61960  0.07770  0.88190  Biso   1.000  H
  H35      1.0000 0.75850  0.22170  0.72460  Biso   1.000  H
  H36      1.0000 0.77630  0.09160  0.85330  Biso   1.000  H
  H37      1.0000 0.54930  0.21040  0.84210  Biso   1.000  H
  H38      1.0000 0.51350  0.27660  0.82230  Biso   1.000  H
  H39      1.0000 0.61740  0.38240  0.64800  Biso   1.000  H
  H40      1.0000 0.65370  0.31650  0.66680  Biso   1.000  H
  H41      1.0000 0.58520  0.45560  0.61320  Biso   1.000  H
  H42      1.0000 0.53570  0.46860  0.62890  Biso   1.000  H
  H43      1.0000 0.51810  0.40430  0.63040  Biso   1.000  H
  H44      1.0000 0.42810  0.31280  0.76150  Biso   1.000  H
  H45      1.0000 0.43960  0.37230  0.76670  Biso   1.000  H
  H46      1.0000 0.44850  0.31890  0.81140  Biso   1.000  H
  H47      1.0000 0.65910  0.48700  0.67650  Biso   1.000  H
  H48      1.0000 0.72030  0.56270  0.69400  Biso   1.000  H
  H49      1.0000 0.57450  0.51080  0.81790  Biso   1.000  H
  H50      1.0000 0.51590  0.43270  0.80220  Biso   1.000  H
  H51      1.0000 0.43070  0.16780  0.23310  Biso   1.000  H
  H52      1.0000 0.51670  0.16120  0.21690  Biso   1.000  H
  H53      1.0000 0.54110  0.22590  0.05080  Biso   1.000  H
  H54      1.0000 0.46150  0.23870  0.06500  Biso   1.000  H
  H55      1.0000 0.28120  0.46160  0.47200  Biso   1.000  H
  H56      1.0000 0.12040  0.43670  0.49910  Biso   1.000  H
  H57      1.0000 0.14880  0.33020  0.63700  Biso   1.000  H
  H58      1.0000 0.96020  0.18130  0.17050  Biso   1.000  H
  H59      1.0000 0.92150  0.18050  0.32020  Biso   1.000  H
  H60      1.0000 0.90270  0.29320  0.17850  Biso   1.000  H
  H61      1.0000 0.11810  0.49850  0.95960  Biso   1.000  H
  H62      1.0000 0.27540  0.51690  0.94630  Biso   1.000  H
  H63      1.0000 0.14670  0.37040  0.94490  Biso   1.000  H
  H64      1.0000 0.15790  0.60860  0.05250  Biso   1.000  H
  H65      1.0000 0.17770  0.66420  0.09890  Biso   1.000  H
  H66      1.0000 0.35200  0.73460  0.03040  Biso   1.000  H
  H67      1.0000 0.33320  0.67950  0.98330  Biso   1.000  H
  H68      1.0000 0.38680  0.80160  0.06880  Biso   1.000  H
  H69      1.0000 0.37110  0.83540  0.09750  Biso   1.000  H
  H70      1.0000 0.36960  0.85150  0.03470  Biso   1.000  H
  H71      1.0000 0.23850  0.81040  0.07430  Biso   1.000  H
  H72      1.0000 0.23330  0.79370  0.13900  Biso   1.000  H
  H73      1.0000 0.18860  0.74010  0.13030  Biso   1.000  H
  H74      1.0000 0.32350  0.66440  0.16350  Biso   1.000  H
  H75      1.0000 0.30600  0.58570  0.25670  Biso   1.000  H
  H76      1.0000 0.18210  0.60760  0.32870  Biso   1.000  H
  H77      1.0000 0.19780  0.68190  0.23490  Biso   1.000  H
  H78      1.0000 0.76690  0.33620  0.40090  Biso   1.000  H
  H79      1.0000 0.78310  0.26640  0.37810  Biso   1.000  H
  H80      1.0000 0.94920  0.40810  0.27670  Biso   1.000  H
  H81      1.0000 0.93500  0.47350  0.30370  Biso   1.000  H
  H82      1.0000 0.06640  0.53840  0.18040  Biso   1.000  H
  H83      1.0000 0.06420  0.56330  0.31630  Biso   1.000  H
  H84      1.0000 0.03280  0.66980  0.18140  Biso   1.000  H
  H85      1.0000 0.64820  0.81870  0.22110  Biso   1.000  H
  H86      1.0000 0.49930  0.81950  0.25900  Biso   1.000  H
  H87      1.0000 0.52830  0.70680  0.39050  Biso   1.000  H
  H88      1.0000 0.54190  0.50150  0.38040  Biso   1.000  H
  H89      1.0000 0.53680  0.48310  0.24150  Biso   1.000  H
  H90      1.0000 0.68470  0.62960  0.22370  Biso   1.000  H
  H91      1.0000 0.33890  0.39140  0.45070  Biso   1.000  H
  H92      1.0000 0.23690  0.33580  0.48650  Biso   1.000  H
  H93      1.0000 0.23500  0.26540  0.38260  Biso   1.000  H
  H94      1.0000 0.33720  0.32050  0.34630  Biso   1.000  H
  H95      1.0000 0.12960  0.19840  0.41480  Biso   1.000  H
  H96      1.0000 0.06710  0.16460  0.46430  Biso   1.000  H
  H97      1.0000 0.11380  0.14850  0.48190  Biso   1.000  H
  H98      1.0000 0.11530  0.18960  0.57190  Biso   1.000  H
  H99      1.0000 0.06730  0.20630  0.56040  Biso   1.000  H
  H100     1.0000 0.12960  0.25990  0.55150  Biso   1.000  H
  H101     1.0000 0.17210  0.33560  0.34090  Biso   1.000  H
  H102     1.0000 0.15760  0.41430  0.27970  Biso   1.000  H
  H103     1.0000 0.06370  0.39240  0.42550  Biso   1.000  H
  H104     1.0000 0.08320  0.31810  0.48410  Biso   1.000  H
  H105     1.0000 0.26290  0.66380  0.56930  Biso   1.000  H
  H106     1.0000 0.35550  0.73360  0.48330  Biso   1.000  H
  H107     1.0000 0.31520  0.59190  0.45890  Biso   1.000  H
  H108     1.0000 0.22280  0.52650  0.53850  Biso   1.000  H
  H109     1.0000 0.47200  0.75320  0.06640  Biso   1.000  H
  H110     1.0000 0.49910  0.61950  0.06420  Biso   1.000  H
  H111     1.0000 0.63700  0.78580  0.03280  Biso   1.000  H
  H112     1.0000 0.17050  0.13070  0.64820  Biso   1.000  H
  H113     1.0000 0.32020  0.24170  0.49930  Biso   1.000  H
  H114     1.0000 0.17850  0.08120  0.52830  Biso   1.000  H
  H115     1.0000 0.95960  0.07770  0.54190  Biso   1.000  H
  H116     1.0000 0.94630  0.22170  0.53680  Biso   1.000  H
  H117     1.0000 0.94490  0.09160  0.68470  Biso   1.000  H
  H118     1.0000 0.05250  0.21040  0.33890  Biso   1.000  H
  H119     1.0000 0.09890  0.27660  0.23690  Biso   1.000  H
  H120     1.0000 0.03040  0.38240  0.23500  Biso   1.000  H
  H121     1.0000 0.98330  0.31650  0.33720  Biso   1.000  H
  H122     1.0000 0.06880  0.45560  0.12960  Biso   1.000  H
  H123     1.0000 0.09750  0.46860  0.06710  Biso   1.000  H
  H124     1.0000 0.03470  0.40430  0.11380  Biso   1.000  H
  H125     1.0000 0.07430  0.31280  0.11530  Biso   1.000  H
  H126     1.0000 0.13900  0.37230  0.06730  Biso   1.000  H
  H127     1.0000 0.13030  0.31890  0.12960  Biso   1.000  H
  H128     1.0000 0.16350  0.48700  0.17210  Biso   1.000  H
  H129     1.0000 0.25670  0.56270  0.15760  Biso   1.000  H
  H130     1.0000 0.32870  0.51080  0.06370  Biso   1.000  H
  H131     1.0000 0.23490  0.43270  0.08320  Biso   1.000  H
  H132     1.0000 0.40090  0.16780  0.26290  Biso   1.000  H
  H133     1.0000 0.37810  0.16120  0.35550  Biso   1.000  H
  H134     1.0000 0.27670  0.22590  0.31520  Biso   1.000  H
  H135     1.0000 0.30370  0.23870  0.22280  Biso   1.000  H
  H136     1.0000 0.18040  0.24680  0.28120  Biso   1.000  H
  H137     1.0000 0.31630  0.38050  0.12040  Biso   1.000  H
  H138     1.0000 0.18140  0.21420  0.14880  Biso   1.000  H
  H139     1.0000 0.22110  0.86930  0.96020  Biso   1.000  H
  H140     1.0000 0.25900  0.75830  0.92150  Biso   1.000  H
  H141     1.0000 0.39050  0.91880  0.90270  Biso   1.000  H
  H142     1.0000 0.38040  0.92230  0.11810  Biso   1.000  H
  H143     1.0000 0.24150  0.77830  0.27540  Biso   1.000  H
  H144     1.0000 0.22370  0.90840  0.14670  Biso   1.000  H
  H145     1.0000 0.45070  0.78960  0.15790  Biso   1.000  H
  H146     1.0000 0.48650  0.72340  0.17770  Biso   1.000  H
  H147     1.0000 0.38260  0.61760  0.35200  Biso   1.000  H
  H148     1.0000 0.34630  0.68350  0.33320  Biso   1.000  H
  H149     1.0000 0.41480  0.54440  0.38680  Biso   1.000  H
  H150     1.0000 0.46430  0.53140  0.37110  Biso   1.000  H
  H151     1.0000 0.48190  0.59570  0.36960  Biso   1.000  H
  H152     1.0000 0.57190  0.68720  0.23850  Biso   1.000  H
  H153     1.0000 0.56040  0.62770  0.23330  Biso   1.000  H
  H154     1.0000 0.55150  0.68110  0.18860  Biso   1.000  H
  H155     1.0000 0.34090  0.51300  0.32350  Biso   1.000  H
  H156     1.0000 0.27970  0.43730  0.30600  Biso   1.000  H
  H157     1.0000 0.42550  0.48920  0.18210  Biso   1.000  H
  H158     1.0000 0.48410  0.56730  0.19780  Biso   1.000  H
  H159     1.0000 0.56930  0.83220  0.76690  Biso   1.000  H
  H160     1.0000 0.48330  0.83880  0.78310  Biso   1.000  H
  H161     1.0000 0.45890  0.77410  0.94920  Biso   1.000  H
  H162     1.0000 0.53850  0.76130  0.93500  Biso   1.000  H
  H163     1.0000 0.71880  0.53840  0.52800  Biso   1.000  H
  H164     1.0000 0.87960  0.56330  0.50090  Biso   1.000  H
  H165     1.0000 0.85120  0.66980  0.36300  Biso   1.000  H
  H166     1.0000 0.03980  0.81870  0.82950  Biso   1.000  H
  H167     1.0000 0.07850  0.81950  0.67980  Biso   1.000  H
  H168     1.0000 0.09730  0.70680  0.82150  Biso   1.000  H
  H169     1.0000 0.88190  0.50150  0.04040  Biso   1.000  H
  H170     1.0000 0.72460  0.48310  0.05370  Biso   1.000  H
  H171     1.0000 0.85330  0.62960  0.05510  Biso   1.000  H
  H172     1.0000 0.84210  0.39140  0.94750  Biso   1.000  H
  H173     1.0000 0.82230  0.33580  0.90110  Biso   1.000  H
  H174     1.0000 0.64800  0.26540  0.96960  Biso   1.000  H
  H175     1.0000 0.66680  0.32050  0.01670  Biso   1.000  H
  H176     1.0000 0.61320  0.19840  0.93120  Biso   1.000  H
  H177     1.0000 0.62890  0.16460  0.90250  Biso   1.000  H
  H178     1.0000 0.63040  0.14850  0.96530  Biso   1.000  H
  H179     1.0000 0.76150  0.18960  0.92570  Biso   1.000  H
  H180     1.0000 0.76670  0.20630  0.86100  Biso   1.000  H
  H181     1.0000 0.81140  0.25990  0.86970  Biso   1.000  H
  H182     1.0000 0.67650  0.33560  0.83650  Biso   1.000  H
  H183     1.0000 0.69400  0.41430  0.74330  Biso   1.000  H
  H184     1.0000 0.81790  0.39240  0.67130  Biso   1.000  H
  H185     1.0000 0.80220  0.31810  0.76510  Biso   1.000  H
  H186     1.0000 0.23310  0.66380  0.59910  Biso   1.000  H
  H187     1.0000 0.21690  0.73360  0.62190  Biso   1.000  H
  H188     1.0000 0.05080  0.59190  0.72330  Biso   1.000  H
  H189     1.0000 0.06500  0.52650  0.69630  Biso   1.000  H
  H190     1.0000 0.93360  0.46160  0.81960  Biso   1.000  H
  H191     1.0000 0.93580  0.43670  0.68370  Biso   1.000  H
  H192     1.0000 0.96720  0.33020  0.81860  Biso   1.000  H
  H193     1.0000 0.35180  0.18130  0.77890  Biso   1.000  H
  H194     1.0000 0.50070  0.18050  0.74100  Biso   1.000  H
  H195     1.0000 0.47170  0.29320  0.60950  Biso   1.000  H
  H196     1.0000 0.45810  0.49850  0.61960  Biso   1.000  H
  H197     1.0000 0.46320  0.51690  0.75850  Biso   1.000  H
  H198     1.0000 0.31530  0.37040  0.77630  Biso   1.000  H
  H199     1.0000 0.66110  0.60860  0.54930  Biso   1.000  H
  H200     1.0000 0.76310  0.66420  0.51350  Biso   1.000  H
  H201     1.0000 0.76500  0.73460  0.61740  Biso   1.000  H
  H202     1.0000 0.66280  0.67950  0.65370  Biso   1.000  H
  H203     1.0000 0.87040  0.80160  0.58520  Biso   1.000  H
  H204     1.0000 0.93290  0.83540  0.53570  Biso   1.000  H
  H205     1.0000 0.88620  0.85150  0.51810  Biso   1.000  H
  H206     1.0000 0.88470  0.81040  0.42810  Biso   1.000  H
  H207     1.0000 0.93270  0.79370  0.43960  Biso   1.000  H
  H208     1.0000 0.87040  0.74010  0.44850  Biso   1.000  H
  H209     1.0000 0.82790  0.66440  0.65910  Biso   1.000  H
  H210     1.0000 0.84240  0.58570  0.72030  Biso   1.000  H
  H211     1.0000 0.93630  0.60760  0.57450  Biso   1.000  H
  H212     1.0000 0.91680  0.68190  0.51590  Biso   1.000  H
  H213     1.0000 0.73710  0.33620  0.43070  Biso   1.000  H
  H214     1.0000 0.64450  0.26640  0.51670  Biso   1.000  H
  H215     1.0000 0.68480  0.40810  0.54110  Biso   1.000  H
  H216     1.0000 0.77720  0.47350  0.46150  Biso   1.000  H
  C1       1.0000 0.41703  0.15706  0.95291  Biso   1.000  C
  C2       1.0000 0.44132  0.22056  0.95064  Biso   1.000  C
  C3       1.0000 0.50244  0.26060  0.93816  Biso   1.000  C
  C4       1.0000 0.52409  0.31940  0.93291  Biso   1.000  C
  C5       1.0000 0.48589  0.34010  0.94001  Biso   1.000  C
  C6       1.0000 0.42519  0.30023  0.95346  Biso   1.000  C
  C7       1.0000 0.40340  0.24075  0.95849  Biso   1.000  C
  C8       1.0000 0.38543  0.32476  0.95653  Biso   1.000  C
  C9       1.0000 0.89873  0.95960  0.37027  Biso   1.000  C
  C10      1.0000 0.83585  0.90280  0.40595  Biso   1.000  C
  C11      1.0000 0.80862  0.86063  0.38795  Biso   1.000  C
  C12      1.0000 0.75111  0.80610  0.42299  Biso   1.000  C
  C13      1.0000 0.71884  0.79480  0.47676  Biso   1.000  C
  C14      1.0000 0.74531  0.83800  0.49369  Biso   1.000  C
  C15      1.0000 0.80342  0.89070  0.45928  Biso   1.000  C
  C16      1.0000 0.71600  0.82710  0.54950  Biso   1.000  C
  C17      1.0000 0.03878  0.98010  0.35112  Biso   1.000  C
  C18      1.0000 0.04818  0.92580  0.38082  Biso   1.000  C
  C19      1.0000 0.04377  0.90100  0.43963  Biso   1.000  C
  C20      1.0000 0.04440  0.84580  0.47040  Biso   1.000  C
  C21      1.0000 0.05238  0.81540  0.44242  Biso   1.000  C
  C22      1.0000 0.05404  0.89371  0.35387  Biso   1.000  C
  C23      1.0000 0.03160  0.81380  0.53360  Biso   1.000  C
  C24      1.0000 0.01400  0.78280  0.58660  Biso   1.000  C
  C25      1.0000 0.98723  0.74350  0.65007  Biso   1.000  C
  C26      1.0000 0.95198  0.75500  0.68182  Biso   1.000  C
  C27      1.0000 0.92463  0.71550  0.74287  Biso   1.000  C
  C28      1.0000 0.93104  0.66380  0.77576  Biso   1.000  C
  C29      1.0000 0.96539  0.65240  0.74421  Biso   1.000  C
  C30      1.0000 0.99340  0.69170  0.68270  Biso   1.000  C
  C31      1.0000 0.92660  0.56460  0.89100  Biso   1.000  C
  C32      1.0000 0.88600  0.65700  0.89060  Biso   1.000  C
  C33      1.0000 0.81124  0.54580  0.87376  Biso   1.000  C
  C34      1.0000 0.80300  0.50760  0.85040  Biso   1.000  C
  C35      1.0000 0.74720  0.46190  0.85910  Biso   1.000  C
  C36      1.0000 0.70460  0.49370  0.91450  Biso   1.000  C
  C37      1.0000 0.76060  0.53940  0.90380  Biso   1.000  C
  C38      1.0000 0.58660  0.36270  0.91870  Biso   1.000  C
  C39      1.0000 0.63680  0.40330  0.90590  Biso   1.000  C
  C40      1.0000 0.69722  0.45310  0.89288  Biso   1.000  C
  C41      1.0000 0.05751  0.80100  0.35809  Biso   1.000  C
  C42      1.0000 0.05837  0.84040  0.38383  Biso   1.000  C
  C43      1.0000 0.69671  0.81890  0.59679  Biso   1.000  C
  C44      1.0000 0.67533  0.80600  0.65507  Biso   1.000  C
  C45      1.0000 0.63570  0.77730  0.77300  Biso   1.000  C
  C46      1.0000 0.61950  0.81440  0.72910  Biso   1.000  C
  C47      1.0000 0.63730  0.82210  0.67140  Biso   1.000  C
  C48      1.0000 0.69550  0.78350  0.69460  Biso   1.000  C
  C49      1.0000 0.67660  0.77260  0.75300  Biso   1.000  C
  C50      1.0000 0.72517  0.75830  0.40553  Biso   1.000  C
  C51      1.0000 0.04660  0.12630  0.13970  Biso   1.000  C
  C52      1.0000 0.08080  0.22090  0.03950  Biso   1.000  C
  C53      1.0000 0.01000  0.10200  0.07200  Biso   1.000  C
  C54      1.0000 0.95030  0.00800  0.48910  Biso   1.000  C
  C55      1.0000 0.86330  0.93400  0.57610  Biso   1.000  C
  C56      1.0000 0.87440  0.02970  0.49110  Biso   1.000  C
  C57      1.0000 0.89003  0.84294  0.74003  Biso   1.000  C
  C58      1.0000 0.82880  0.77944  0.77924  Biso   1.000  C
  C59      1.0000 0.80124  0.73940  0.75816  Biso   1.000  C
  C60      1.0000 0.74769  0.68060  0.79531  Biso   1.000  C
  C61      1.0000 0.71989  0.65990  0.85421  Biso   1.000  C
  C62      1.0000 0.74631  0.69977  0.87504  Biso   1.000  C
  C63      1.0000 0.80076  0.75925  0.83735  Biso   1.000  C
  C64      1.0000 0.71871  0.67524  0.93933  Biso   1.000  C
  C65      1.0000 0.67013  0.04040  0.06087  Biso   1.000  C
  C66      1.0000 0.69125  0.09720  0.06695  Biso   1.000  C
  C67      1.0000 0.75142  0.13937  0.05201  Biso   1.000  C
  C68      1.0000 0.77091  0.19390  0.05499  Biso   1.000  C
  C69      1.0000 0.72844  0.20520  0.07596  Biso   1.000  C
  C70      1.0000 0.66831  0.16200  0.09269  Biso   1.000  C
  C71      1.0000 0.65002  0.10930  0.08728  Biso   1.000  C
  C72      1.0000 0.62340  0.17290  0.11110  Biso   1.000  C
  C73      1.0000 0.66878  0.01990  0.94132  Biso   1.000  C
  C74      1.0000 0.69338  0.07420  0.87762  Biso   1.000  C
  C75      1.0000 0.65937  0.09900  0.85723  Biso   1.000  C
  C76      1.0000 0.68380  0.15420  0.80140  Biso   1.000  C
  C77      1.0000 0.74218  0.18460  0.76302  Biso   1.000  C
  C78      1.0000 0.75242  0.10629  0.83967  Biso   1.000  C
  C79      1.0000 0.65260  0.18620  0.78220  Biso   1.000  C
  C80      1.0000 0.63060  0.21720  0.76880  Biso   1.000  C
  C81      1.0000 0.60643  0.25650  0.75627  Biso   1.000  C
  C82      1.0000 0.56318  0.24500  0.80302  Biso   1.000  C
  C83      1.0000 0.54163  0.28450  0.79087  Biso   1.000  C
  C84      1.0000 0.56044  0.33620  0.73276  Biso   1.000  C
  C85      1.0000 0.60339  0.34760  0.68701  Biso   1.000  C
  C86      1.0000 0.62560  0.30830  0.69830  Biso   1.000  C
  C87      1.0000 0.54440  0.43540  0.63800  Biso   1.000  C
  C88      1.0000 0.45240  0.34300  0.77100  Biso   1.000  C
  C89      1.0000 0.58044  0.45420  0.73456  Biso   1.000  C
  C90      1.0000 0.64200  0.49240  0.70460  Biso   1.000  C
  C91      1.0000 0.67900  0.53810  0.71470  Biso   1.000  C
  C92      1.0000 0.59180  0.50630  0.78910  Biso   1.000  C
  C93      1.0000 0.55680  0.46060  0.77880  Biso   1.000  C
  C94      1.0000 0.71860  0.63730  0.77610  Biso   1.000  C
  C95      1.0000 0.69080  0.59670  0.76650  Biso   1.000  C
  C96      1.0000 0.65402  0.54690  0.75588  Biso   1.000  C
  C97      1.0000 0.84091  0.19900  0.74349  Biso   1.000  C
  C98      1.0000 0.77577  0.15960  0.78203  Biso   1.000  C
  C99      1.0000 0.58431  0.18110  0.12219  Biso   1.000  C
  C100     1.0000 0.53893  0.19400  0.13067  Biso   1.000  C
  C101     1.0000 0.44970  0.22270  0.14160  Biso   1.000  C
  C102     1.0000 0.45650  0.18560  0.19490  Biso   1.000  C
  C103     1.0000 0.50650  0.17790  0.18480  Biso   1.000  C
  C104     1.0000 0.52190  0.21650  0.08800  Biso   1.000  C
  C105     1.0000 0.47440  0.22740  0.09600  Biso   1.000  C
  C106     1.0000 0.83617  0.24170  0.03313  Biso   1.000  C
  C107     1.0000 0.73400  0.87370  0.07970  Biso   1.000  C
  C108     1.0000 0.73960  0.77910  0.14010  Biso   1.000  C
  C109     1.0000 0.82600  0.89800  0.09200  Biso   1.000  C
  C110     1.0000 0.50290  0.99200  0.05770  Biso   1.000  C
  C111     1.0000 0.48990  0.06600  0.07070  Biso   1.000  C
  C112     1.0000 0.47920  0.97030  0.15530  Biso   1.000  C
  C113     1.0000 0.25997  0.36994  0.58297  Biso   1.000  C
  C114     1.0000 0.22076  0.39196  0.55868  Biso   1.000  C
  C115     1.0000 0.24184  0.44060  0.49756  Biso   1.000  C
  C116     1.0000 0.20469  0.45700  0.47591  Biso   1.000  C
  C117     1.0000 0.14579  0.42590  0.51411  Biso   1.000  C
  C118     1.0000 0.12496  0.37865  0.57481  Biso   1.000  C
  C119     1.0000 0.16265  0.36189  0.59660  Biso   1.000  C
  C120     1.0000 0.06067  0.34196  0.61457  Biso   1.000  C
  C121     1.0000 0.93913  0.26900  0.10127  Biso   1.000  C
  C122     1.0000 0.93305  0.24180  0.16415  Biso   1.000  C
  C123     1.0000 0.94799  0.19657  0.19138  Biso   1.000  C
  C124     1.0000 0.94501  0.17410  0.24889  Biso   1.000  C
  C125     1.0000 0.92404  0.19560  0.28116  Biso   1.000  C
  C126     1.0000 0.90731  0.23900  0.25469  Biso   1.000  C
  C127     1.0000 0.91272  0.26270  0.19658  Biso   1.000  C
  C128     1.0000 0.88890  0.26550  0.28400  Biso   1.000  C
  C129     1.0000 0.05868  0.38990  0.96122  Biso   1.000  C
  C130     1.0000 0.12238  0.42900  0.95182  Biso   1.000  C
  C131     1.0000 0.14277  0.48340  0.95623  Biso   1.000  C
  C132     1.0000 0.19860  0.51480  0.95560  Biso   1.000  C
  C133     1.0000 0.23698  0.49480  0.94762  Biso   1.000  C
  C134     1.0000 0.16033  0.40791  0.94596  Biso   1.000  C
  C135     1.0000 0.21780  0.56520  0.96840  Biso   1.000  C
  C136     1.0000 0.23120  0.60060  0.98600  Biso   1.000  C
  C137     1.0000 0.24373  0.63730  0.01277  Biso   1.000  C
  C138     1.0000 0.19698  0.63380  0.04802  Biso   1.000  C
  C139     1.0000 0.20913  0.66750  0.07537  Biso   1.000  C
  C140     1.0000 0.26724  0.70680  0.06896  Biso   1.000  C
  C141     1.0000 0.31299  0.70960  0.03461  Biso   1.000  C
  C142     1.0000 0.30170  0.67610  0.00660  Biso   1.000  C
  C143     1.0000 0.36200  0.81760  0.07340  Biso   1.000  C
  C144     1.0000 0.22900  0.77660  0.11400  Biso   1.000  C
  C145     1.0000 0.26544  0.68500  0.18876  Biso   1.000  C
  C146     1.0000 0.29540  0.65340  0.19700  Biso   1.000  C
  C147     1.0000 0.28530  0.60630  0.25280  Biso   1.000  C
  C148     1.0000 0.21090  0.61910  0.29540  Biso   1.000  C
  C149     1.0000 0.22120  0.66440  0.23940  Biso   1.000  C
  C150     1.0000 0.22390  0.50530  0.41340  Biso   1.000  C
  C151     1.0000 0.23350  0.54270  0.36320  Biso   1.000  C
  C152     1.0000 0.24412  0.59010  0.30278  Biso   1.000  C
  C153     1.0000 0.25651  0.41560  0.94249  Biso   1.000  C
  C154     1.0000 0.21797  0.44220  0.94163  Biso   1.000  C
  C155     1.0000 0.87781  0.29350  0.30329  Biso   1.000  C
  C156     1.0000 0.86933  0.33040  0.32467  Biso   1.000  C
  C157     1.0000 0.85840  0.40870  0.36430  Biso   1.000  C
  C158     1.0000 0.80510  0.34860  0.38050  Biso   1.000  C
  C159     1.0000 0.81520  0.30870  0.36270  Biso   1.000  C
  C160     1.0000 0.91200  0.39010  0.30450  Biso   1.000  C
  C161     1.0000 0.90400  0.42960  0.32340  Biso   1.000  C
  C162     1.0000 0.96687  0.13070  0.27483  Biso   1.000  C
  C163     1.0000 0.92030  0.18630  0.95340  Biso   1.000  C
  C164     1.0000 0.85990  0.12030  0.91920  Biso   1.000  C
  C165     1.0000 0.90800  0.08200  0.99000  Biso   1.000  C
  C166     1.0000 0.94230  0.43940  0.04970  Biso   1.000  C
  C167     1.0000 0.92930  0.43940  0.13670  Biso   1.000  C
  C168     1.0000 0.84470  0.36550  0.12560  Biso   1.000  C
  C169     1.0000 0.04709  0.63006  0.10997  Biso   1.000  C
  C170     1.0000 0.04936  0.60804  0.17120  Biso   1.000  C
  C171     1.0000 0.06184  0.55940  0.19876  Biso   1.000  C
  C172     1.0000 0.06709  0.54300  0.25231  Biso   1.000  C
  C173     1.0000 0.05999  0.57410  0.28011  Biso   1.000  C
  C174     1.0000 0.04654  0.62135  0.25369  Biso   1.000  C
  C175     1.0000 0.04151  0.63811  0.19924  Biso   1.000  C
  C176     1.0000 0.04347  0.65804  0.28129  Biso   1.000  C
  C177     1.0000 0.62973  0.73100  0.32987  Biso   1.000  C
  C178     1.0000 0.59405  0.75820  0.30875  Biso   1.000  C
  C179     1.0000 0.61205  0.80343  0.24858  Biso   1.000  C
  C180     1.0000 0.57701  0.82590  0.22909  Biso   1.000  C
  C181     1.0000 0.52324  0.80440  0.27156  Biso   1.000  C
  C182     1.0000 0.50631  0.76100  0.33169  Biso   1.000  C
  C183     1.0000 0.54072  0.73730  0.34998  Biso   1.000  C
  C184     1.0000 0.45050  0.73450  0.37660  Biso   1.000  C
  C185     1.0000 0.64888  0.61010  0.33122  Biso   1.000  C
  C186     1.0000 0.61918  0.57100  0.30662  Biso   1.000  C
  C187     1.0000 0.56037  0.51660  0.34063  Biso   1.000  C
  C188     1.0000 0.52960  0.48520  0.31620  Biso   1.000  C
  C189     1.0000 0.55758  0.50520  0.25782  Biso   1.000  C
  C190     1.0000 0.64613  0.59209  0.24758  Biso   1.000  C
  C191     1.0000 0.46640  0.43480  0.34740  Biso   1.000  C
  C192     1.0000 0.41340  0.39940  0.36940  Biso   1.000  C
  C193     1.0000 0.34993  0.36270  0.39357  Biso   1.000  C
  C194     1.0000 0.31818  0.36620  0.43682  Biso   1.000  C
  C195     1.0000 0.25713  0.33250  0.45837  Biso   1.000  C
  C196     1.0000 0.22424  0.29320  0.43956  Biso   1.000  C
  C197     1.0000 0.25579  0.29040  0.39661  Biso   1.000  C
  C198     1.0000 0.31730  0.32390  0.37440  Biso   1.000  C
  C199     1.0000 0.10900  0.18240  0.45560  Biso   1.000  C
  C200     1.0000 0.10940  0.22340  0.54760  Biso   1.000  C
  C201     1.0000 0.12624  0.31500  0.41956  Biso   1.000  C
  C202     1.0000 0.14960  0.34660  0.35800  Biso   1.000  C
  C203     1.0000 0.14090  0.39370  0.32100  Biso   1.000  C
  C204     1.0000 0.08550  0.38090  0.40820  Biso   1.000  C
  C205     1.0000 0.09620  0.33560  0.44320  Biso   1.000  C
  C206     1.0000 0.08130  0.49470  0.28140  Biso   1.000  C
  C207     1.0000 0.09410  0.45730  0.30920  Biso   1.000  C
  C208     1.0000 0.10712  0.40990  0.34598  Biso   1.000  C
  C209     1.0000 0.64191  0.58440  0.15909  Biso   1.000  C
  C210     1.0000 0.61617  0.55780  0.22423  Biso   1.000  C
  C211     1.0000 0.40321  0.70650  0.41569  Biso   1.000  C
  C212     1.0000 0.34493  0.66960  0.46107  Biso   1.000  C
  C213     1.0000 0.22700  0.59130  0.55030  Biso   1.000  C
  C214     1.0000 0.27090  0.65140  0.54350  Biso   1.000  C
  C215     1.0000 0.32860  0.69130  0.49350  Biso   1.000  C
  C216     1.0000 0.30540  0.60990  0.47810  Biso   1.000  C
  C217     1.0000 0.24700  0.57040  0.52560  Biso   1.000  C
  C218     1.0000 0.59447  0.86930  0.16383  Biso   1.000  C
  C219     1.0000 0.86030  0.81370  0.26600  Biso   1.000  C
  C220     1.0000 0.96050  0.87970  0.26040  Biso   1.000  C
  C221     1.0000 0.92800  0.91800  0.17400  Biso   1.000  C
  C222     1.0000 0.51090  0.56060  0.49710  Biso   1.000  C
  C223     1.0000 0.42390  0.56060  0.51010  Biso   1.000  C
  C224     1.0000 0.50890  0.63450  0.52080  Biso   1.000  C
  C225     1.0000 0.58297  0.84294  0.04709  Biso   1.000  C
  C226     1.0000 0.55868  0.77944  0.04936  Biso   1.000  C
  C227     1.0000 0.49756  0.73940  0.06184  Biso   1.000  C
  C228     1.0000 0.47591  0.68060  0.06709  Biso   1.000  C
  C229     1.0000 0.51411  0.65990  0.05999  Biso   1.000  C
  C230     1.0000 0.57481  0.69977  0.04654  Biso   1.000  C
  C231     1.0000 0.59660  0.75925  0.04151  Biso   1.000  C
  C232     1.0000 0.61457  0.67524  0.04347  Biso   1.000  C
  C233     1.0000 0.10127  0.04040  0.62973  Biso   1.000  C
  C234     1.0000 0.16415  0.09720  0.59405  Biso   1.000  C
  C235     1.0000 0.19138  0.13937  0.61205  Biso   1.000  C
  C236     1.0000 0.24889  0.19390  0.57701  Biso   1.000  C
  C237     1.0000 0.28116  0.20520  0.52324  Biso   1.000  C
  C238     1.0000 0.25469  0.16200  0.50631  Biso   1.000  C
  C239     1.0000 0.19658  0.10930  0.54072  Biso   1.000  C
  C240     1.0000 0.28400  0.17290  0.45050  Biso   1.000  C
  C241     1.0000 0.96122  0.01990  0.64888  Biso   1.000  C
  C242     1.0000 0.95182  0.07420  0.61918  Biso   1.000  C
  C243     1.0000 0.95623  0.09900  0.56037  Biso   1.000  C
  C244     1.0000 0.95560  0.15420  0.52960  Biso   1.000  C
  C245     1.0000 0.94762  0.18460  0.55758  Biso   1.000  C
  C246     1.0000 0.94596  0.10629  0.64613  Biso   1.000  C
  C247     1.0000 0.96840  0.18620  0.46640  Biso   1.000  C
  C248     1.0000 0.98600  0.21720  0.41340  Biso   1.000  C
  C249     1.0000 0.01277  0.25650  0.34993  Biso   1.000  C
  C250     1.0000 0.04802  0.24500  0.31818  Biso   1.000  C
  C251     1.0000 0.07537  0.28450  0.25713  Biso   1.000  C
  C252     1.0000 0.06896  0.33620  0.22424  Biso   1.000  C
  C253     1.0000 0.03461  0.34760  0.25579  Biso   1.000  C
  C254     1.0000 0.00660  0.30830  0.31730  Biso   1.000  C
  C255     1.0000 0.07340  0.43540  0.10900  Biso   1.000  C
  C256     1.0000 0.11400  0.34300  0.10940  Biso   1.000  C
  C257     1.0000 0.18876  0.45420  0.12624  Biso   1.000  C
  C258     1.0000 0.19700  0.49240  0.14960  Biso   1.000  C
  C259     1.0000 0.25280  0.53810  0.14090  Biso   1.000  C
  C260     1.0000 0.29540  0.50630  0.08550  Biso   1.000  C
  C261     1.0000 0.23940  0.46060  0.09620  Biso   1.000  C
  C262     1.0000 0.41340  0.63730  0.08130  Biso   1.000  C
  C263     1.0000 0.36320  0.59670  0.09410  Biso   1.000  C
  C264     1.0000 0.30278  0.54690  0.10712  Biso   1.000  C
  C265     1.0000 0.94249  0.19900  0.64191  Biso   1.000  C
  C266     1.0000 0.94163  0.15960  0.61617  Biso   1.000  C
  C267     1.0000 0.30329  0.18110  0.40321  Biso   1.000  C
  C268     1.0000 0.32467  0.19400  0.34493  Biso   1.000  C
  C269     1.0000 0.36430  0.22270  0.22700  Biso   1.000  C
  C270     1.0000 0.38050  0.18560  0.27090  Biso   1.000  C
  C271     1.0000 0.36270  0.17790  0.32860  Biso   1.000  C
  C272     1.0000 0.30450  0.21650  0.30540  Biso   1.000  C
  C273     1.0000 0.32340  0.22740  0.24700  Biso   1.000  C
  C274     1.0000 0.27483  0.24170  0.59447  Biso   1.000  C
  C275     1.0000 0.95340  0.87370  0.86030  Biso   1.000  C
  C276     1.0000 0.91920  0.77910  0.96050  Biso   1.000  C
  C277     1.0000 0.99000  0.89800  0.92800  Biso   1.000  C
  C278     1.0000 0.04970  0.99200  0.51090  Biso   1.000  C
  C279     1.0000 0.13670  0.06600  0.42390  Biso   1.000  C
  C280     1.0000 0.12560  0.97030  0.50890  Biso   1.000  C
  C281     1.0000 0.10997  0.15706  0.25997  Biso   1.000  C
  C282     1.0000 0.17120  0.22056  0.22076  Biso   1.000  C
  C283     1.0000 0.19876  0.26060  0.24184  Biso   1.000  C
  C284     1.0000 0.25231  0.31940  0.20469  Biso   1.000  C
  C285     1.0000 0.28011  0.34010  0.14579  Biso   1.000  C
  C286     1.0000 0.25369  0.30023  0.12496  Biso   1.000  C
  C287     1.0000 0.19924  0.24075  0.16265  Biso   1.000  C
  C288     1.0000 0.28129  0.32476  0.06067  Biso   1.000  C
  C289     1.0000 0.32987  0.95960  0.93913  Biso   1.000  C
  C290     1.0000 0.30875  0.90280  0.93305  Biso   1.000  C
  C291     1.0000 0.24858  0.86063  0.94799  Biso   1.000  C
  C292     1.0000 0.22909  0.80610  0.94501  Biso   1.000  C
  C293     1.0000 0.27156  0.79480  0.92404  Biso   1.000  C
  C294     1.0000 0.33169  0.83800  0.90731  Biso   1.000  C
  C295     1.0000 0.34998  0.89070  0.91272  Biso   1.000  C
  C296     1.0000 0.37660  0.82710  0.88890  Biso   1.000  C
  C297     1.0000 0.33122  0.98010  0.05868  Biso   1.000  C
  C298     1.0000 0.30662  0.92580  0.12238  Biso   1.000  C
  C299     1.0000 0.34063  0.90100  0.14277  Biso   1.000  C
  C300     1.0000 0.31620  0.84580  0.19860  Biso   1.000  C
  C301     1.0000 0.25782  0.81540  0.23698  Biso   1.000  C
  C302     1.0000 0.24758  0.89371  0.16033  Biso   1.000  C
  C303     1.0000 0.34740  0.81380  0.21780  Biso   1.000  C
  C304     1.0000 0.36940  0.78280  0.23120  Biso   1.000  C
  C305     1.0000 0.39357  0.74350  0.24373  Biso   1.000  C
  C306     1.0000 0.43682  0.75500  0.19698  Biso   1.000  C
  C307     1.0000 0.45837  0.71550  0.20913  Biso   1.000  C
  C308     1.0000 0.43956  0.66380  0.26724  Biso   1.000  C
  C309     1.0000 0.39661  0.65240  0.31299  Biso   1.000  C
  C310     1.0000 0.37440  0.69170  0.30170  Biso   1.000  C
  C311     1.0000 0.45560  0.56460  0.36200  Biso   1.000  C
  C312     1.0000 0.54760  0.65700  0.22900  Biso   1.000  C
  C313     1.0000 0.41956  0.54580  0.26544  Biso   1.000  C
  C314     1.0000 0.35800  0.50760  0.29540  Biso   1.000  C
  C315     1.0000 0.32100  0.46190  0.28530  Biso   1.000  C
  C316     1.0000 0.40820  0.49370  0.21090  Biso   1.000  C
  C317     1.0000 0.44320  0.53940  0.22120  Biso   1.000  C
  C318     1.0000 0.28140  0.36270  0.22390  Biso   1.000  C
  C319     1.0000 0.30920  0.40330  0.23350  Biso   1.000  C
  C320     1.0000 0.34598  0.45310  0.24412  Biso   1.000  C
  C321     1.0000 0.15909  0.80100  0.25651  Biso   1.000  C
  C322     1.0000 0.22423  0.84040  0.21797  Biso   1.000  C
  C323     1.0000 0.41569  0.81890  0.87781  Biso   1.000  C
  C324     1.0000 0.46107  0.80600  0.86933  Biso   1.000  C
  C325     1.0000 0.55030  0.77730  0.85840  Biso   1.000  C
  C326     1.0000 0.54350  0.81440  0.80510  Biso   1.000  C
  C327     1.0000 0.49350  0.82210  0.81520  Biso   1.000  C
  C328     1.0000 0.47810  0.78350  0.91200  Biso   1.000  C
  C329     1.0000 0.52560  0.77260  0.90400  Biso   1.000  C
  C330     1.0000 0.16383  0.75830  0.96687  Biso   1.000  C
  C331     1.0000 0.26600  0.12630  0.92030  Biso   1.000  C
  C332     1.0000 0.26040  0.22090  0.85990  Biso   1.000  C
  C333     1.0000 0.17400  0.10200  0.90800  Biso   1.000  C
  C334     1.0000 0.49710  0.00800  0.94230  Biso   1.000  C
  C335     1.0000 0.51010  0.93400  0.92930  Biso   1.000  C
  C336     1.0000 0.52080  0.02970  0.84470  Biso   1.000  C
  C337     1.0000 0.74003  0.63006  0.41703  Biso   1.000  C
  C338     1.0000 0.77924  0.60804  0.44132  Biso   1.000  C
  C339     1.0000 0.75816  0.55940  0.50244  Biso   1.000  C
  C340     1.0000 0.79531  0.54300  0.52409  Biso   1.000  C
  C341     1.0000 0.85421  0.57410  0.48589  Biso   1.000  C
  C342     1.0000 0.87504  0.62135  0.42519  Biso   1.000  C
  C343     1.0000 0.83735  0.63811  0.40340  Biso   1.000  C
  C344     1.0000 0.93933  0.65804  0.38543  Biso   1.000  C
  C345     1.0000 0.06087  0.73100  0.89873  Biso   1.000  C
  C346     1.0000 0.06695  0.75820  0.83585  Biso   1.000  C
  C347     1.0000 0.05201  0.80343  0.80862  Biso   1.000  C
  C348     1.0000 0.05499  0.82590  0.75111  Biso   1.000  C
  C349     1.0000 0.07596  0.80440  0.71884  Biso   1.000  C
  C350     1.0000 0.09269  0.76100  0.74531  Biso   1.000  C
  C351     1.0000 0.08728  0.73730  0.80342  Biso   1.000  C
  C352     1.0000 0.11110  0.73450  0.71600  Biso   1.000  C
  C353     1.0000 0.94132  0.61010  0.03878  Biso   1.000  C
  C354     1.0000 0.87762  0.57100  0.04818  Biso   1.000  C
  C355     1.0000 0.85723  0.51660  0.04377  Biso   1.000  C
  C356     1.0000 0.80140  0.48520  0.04440  Biso   1.000  C
  C357     1.0000 0.76302  0.50520  0.05238  Biso   1.000  C
  C358     1.0000 0.83967  0.59209  0.05404  Biso   1.000  C
  C359     1.0000 0.78220  0.43480  0.03160  Biso   1.000  C
  C360     1.0000 0.76880  0.39940  0.01400  Biso   1.000  C
  C361     1.0000 0.75627  0.36270  0.98723  Biso   1.000  C
  C362     1.0000 0.80302  0.36620  0.95198  Biso   1.000  C
  C363     1.0000 0.79087  0.33250  0.92463  Biso   1.000  C
  C364     1.0000 0.73276  0.29320  0.93104  Biso   1.000  C
  C365     1.0000 0.68701  0.29040  0.96539  Biso   1.000  C
  C366     1.0000 0.69830  0.32390  0.99340  Biso   1.000  C
  C367     1.0000 0.63800  0.18240  0.92660  Biso   1.000  C
  C368     1.0000 0.77100  0.22340  0.88600  Biso   1.000  C
  C369     1.0000 0.73456  0.31500  0.81124  Biso   1.000  C
  C370     1.0000 0.70460  0.34660  0.80300  Biso   1.000  C
  C371     1.0000 0.71470  0.39370  0.74720  Biso   1.000  C
  C372     1.0000 0.78910  0.38090  0.70460  Biso   1.000  C
  C373     1.0000 0.77880  0.33560  0.76060  Biso   1.000  C
  C374     1.0000 0.77610  0.49470  0.58660  Biso   1.000  C
  C375     1.0000 0.76650  0.45730  0.63680  Biso   1.000  C
  C376     1.0000 0.75588  0.40990  0.69722  Biso   1.000  C
  C377     1.0000 0.74349  0.58440  0.05751  Biso   1.000  C
  C378     1.0000 0.78203  0.55780  0.05837  Biso   1.000  C
  C379     1.0000 0.12219  0.70650  0.69671  Biso   1.000  C
  C380     1.0000 0.13067  0.66960  0.67533  Biso   1.000  C
  C381     1.0000 0.14160  0.59130  0.63570  Biso   1.000  C
  C382     1.0000 0.19490  0.65140  0.61950  Biso   1.000  C
  C383     1.0000 0.18480  0.69130  0.63730  Biso   1.000  C
  C384     1.0000 0.08800  0.60990  0.69550  Biso   1.000  C
  C385     1.0000 0.09600  0.57040  0.67660  Biso   1.000  C
  C386     1.0000 0.03313  0.86930  0.72517  Biso   1.000  C
  C387     1.0000 0.07970  0.81370  0.04660  Biso   1.000  C
  C388     1.0000 0.14010  0.87970  0.08080  Biso   1.000  C
  C389     1.0000 0.09200  0.91800  0.01000  Biso   1.000  C
  C390     1.0000 0.05770  0.56060  0.95030  Biso   1.000  C
  C391     1.0000 0.07070  0.56060  0.86330  Biso   1.000  C
  C392     1.0000 0.15530  0.63450  0.87440  Biso   1.000  C
  C393     1.0000 0.95291  0.36994  0.89003  Biso   1.000  C
  C394     1.0000 0.95064  0.39196  0.82880  Biso   1.000  C
  C395     1.0000 0.93816  0.44060  0.80124  Biso   1.000  C
  C396     1.0000 0.93291  0.45700  0.74769  Biso   1.000  C
  C397     1.0000 0.94001  0.42590  0.71989  Biso   1.000  C
  C398     1.0000 0.95346  0.37865  0.74631  Biso   1.000  C
  C399     1.0000 0.95849  0.36189  0.80076  Biso   1.000  C
  C400     1.0000 0.95653  0.34196  0.71871  Biso   1.000  C
  C401     1.0000 0.37027  0.26900  0.67013  Biso   1.000  C
  C402     1.0000 0.40595  0.24180  0.69125  Biso   1.000  C
  C403     1.0000 0.38795  0.19657  0.75142  Biso   1.000  C
  C404     1.0000 0.42299  0.17410  0.77091  Biso   1.000  C
  C405     1.0000 0.47676  0.19560  0.72844  Biso   1.000  C
  C406     1.0000 0.49369  0.23900  0.66831  Biso   1.000  C
  C407     1.0000 0.45928  0.26270  0.65002  Biso   1.000  C
  C408     1.0000 0.54950  0.26550  0.62340  Biso   1.000  C
  C409     1.0000 0.35112  0.38990  0.66878  Biso   1.000  C
  C410     1.0000 0.38082  0.42900  0.69338  Biso   1.000  C
  C411     1.0000 0.43963  0.48340  0.65937  Biso   1.000  C
  C412     1.0000 0.47040  0.51480  0.68380  Biso   1.000  C
  C413     1.0000 0.44242  0.49480  0.74218  Biso   1.000  C
  C414     1.0000 0.35387  0.40791  0.75242  Biso   1.000  C
  C415     1.0000 0.53360  0.56520  0.65260  Biso   1.000  C
  C416     1.0000 0.58660  0.60060  0.63060  Biso   1.000  C
  C417     1.0000 0.65007  0.63730  0.60643  Biso   1.000  C
  C418     1.0000 0.68182  0.63380  0.56318  Biso   1.000  C
  C419     1.0000 0.74287  0.66750  0.54163  Biso   1.000  C
  C420     1.0000 0.77576  0.70680  0.56044  Biso   1.000  C
  C421     1.0000 0.74421  0.70960  0.60339  Biso   1.000  C
  C422     1.0000 0.68270  0.67610  0.62560  Biso   1.000  C
  C423     1.0000 0.89100  0.81760  0.54440  Biso   1.000  C
  C424     1.0000 0.89060  0.77660  0.45240  Biso   1.000  C
  C425     1.0000 0.87376  0.68500  0.58044  Biso   1.000  C
  C426     1.0000 0.85040  0.65340  0.64200  Biso   1.000  C
  C427     1.0000 0.85910  0.60630  0.67900  Biso   1.000  C
  C428     1.0000 0.91450  0.61910  0.59180  Biso   1.000  C
  C429     1.0000 0.90380  0.66440  0.55680  Biso   1.000  C
  C430     1.0000 0.91870  0.50530  0.71860  Biso   1.000  C
  C431     1.0000 0.90590  0.54270  0.69080  Biso   1.000  C
  C432     1.0000 0.89288  0.59010  0.65402  Biso   1.000  C
  C433     1.0000 0.35809  0.41560  0.84091  Biso   1.000  C
  C434     1.0000 0.38383  0.44220  0.77577  Biso   1.000  C
  C435     1.0000 0.59679  0.29350  0.58431  Biso   1.000  C
  C436     1.0000 0.65507  0.33040  0.53893  Biso   1.000  C
  C437     1.0000 0.77300  0.40870  0.44970  Biso   1.000  C
  C438     1.0000 0.72910  0.34860  0.45650  Biso   1.000  C
  C439     1.0000 0.67140  0.30870  0.50650  Biso   1.000  C
  C440     1.0000 0.69460  0.39010  0.52190  Biso   1.000  C
  C441     1.0000 0.75300  0.42960  0.47440  Biso   1.000  C
  C442     1.0000 0.40553  0.13070  0.83617  Biso   1.000  C
  C443     1.0000 0.13970  0.18630  0.73400  Biso   1.000  C
  C444     1.0000 0.03950  0.12030  0.73960  Biso   1.000  C
  C445     1.0000 0.07200  0.08200  0.82600  Biso   1.000  C
  C446     1.0000 0.48910  0.43940  0.50290  Biso   1.000  C
  C447     1.0000 0.57610  0.43940  0.48990  Biso   1.000  C
  C448     1.0000 0.49110  0.36550  0.47920  Biso   1.000  C
  C449     1.0000 0.57630  0.67050  0.90580  Biso   1.000  C
  C450     1.0000 0.67180  0.80570  0.86610  Biso   1.000  C
  C451     1.0000 0.42370  0.32950  0.09420  Biso   1.000  C
  C452     1.0000 0.32820  0.19430  0.13390  Biso   1.000  C
  C453     1.0000 0.90580  0.48210  0.42370  Biso   1.000  C
  C454     1.0000 0.86610  0.53790  0.32820  Biso   1.000  C
  C455     1.0000 0.09420  0.51790  0.57630  Biso   1.000  C
  C456     1.0000 0.13390  0.46210  0.67180  Biso   1.000  C
  N1       1.0000 0.05290  0.15240  0.08450  Biso   1.000  N
  N2       1.0000 0.89160  0.98940  0.51960  Biso   1.000  N
  N3       1.0000 0.76310  0.84760  0.09950  Biso   1.000  N
  N4       1.0000 0.49100  0.01060  0.09780  Biso   1.000  N
  N5       1.0000 0.90050  0.13740  0.94710  Biso   1.000  N
  N6       1.0000 0.90220  0.41120  0.10840  Biso   1.000  N
  N7       1.0000 0.91550  0.86260  0.23690  Biso   1.000  N
  N8       1.0000 0.48040  0.58880  0.50900  Biso   1.000  N
  N9       1.0000 0.94710  0.84760  0.91550  Biso   1.000  N
  N10      1.0000 0.10840  0.01060  0.48040  Biso   1.000  N
  N11      1.0000 0.23690  0.15240  0.90050  Biso   1.000  N
  N12      1.0000 0.50900  0.98940  0.90220  Biso   1.000  N
  N13      1.0000 0.09950  0.86260  0.05290  Biso   1.000  N
  N14      1.0000 0.09780  0.58880  0.89160  Biso   1.000  N
  N15      1.0000 0.08450  0.13740  0.76310  Biso   1.000  N
  N16      1.0000 0.51960  0.41120  0.49100  Biso   1.000  N
  O1       1.0000 0.36259  0.12705  0.96294  Biso   1.000  O
  O2       1.0000 0.45289  0.14169  0.94276  Biso   1.000  O
  O3       1.0000 0.92288  0.98603  0.39615  Biso   1.000  O
  O4       1.0000 0.92399  0.97631  0.31742  Biso   1.000  O
  O5       1.0000 0.33191  0.28749  0.96574  Biso   1.000  O
  O6       1.0000 0.40810  0.37978  0.94998  Biso   1.000  O
  O7       1.0000 0.06470  0.75512  0.38678  Biso   1.000  O
  O8       1.0000 0.04959  0.81640  0.31037  Biso   1.000  O
  O9       1.0000 0.03479  0.00671  0.37820  Biso   1.000  O
  O10      1.0000 0.03305  0.99217  0.30234  Biso   1.000  O
  O11      1.0000 0.67539  0.70574  0.44105  Biso   1.000  O
  O12      1.0000 0.75673  0.77645  0.35402  Biso   1.000  O
  O13      1.0000 0.01908  0.06122  0.18164  Biso   1.000  O
  O14      1.0000 0.98906  0.06099  0.44101  Biso   1.000  O
  O15      1.0000 0.91001  0.87295  0.76446  Biso   1.000  O
  O16      1.0000 0.91555  0.85831  0.68880  Biso   1.000  O
  O17      1.0000 0.61782  0.01397  0.06315  Biso   1.000  O
  O18      1.0000 0.70627  0.02369  0.05232  Biso   1.000  O
  O19      1.0000 0.74677  0.71251  0.95558  Biso   1.000  O
  O20      1.0000 0.67024  0.62022  0.97168  Biso   1.000  O
  O21      1.0000 0.85810  0.24488  0.69042  Biso   1.000  O
  O22      1.0000 0.87323  0.18360  0.76681  Biso   1.000  O
  O23      1.0000 0.61509  0.99329  0.97192  Biso   1.000  O
  O24      1.0000 0.70549  0.00783  0.95912  Biso   1.000  O
  O25      1.0000 0.85321  0.29426  0.03035  Biso   1.000  O
  O26      1.0000 0.86953  0.22355  0.01972  Biso   1.000  O
  O27      1.0000 0.75714  0.93878  0.04214  Biso   1.000  O
  O28      1.0000 0.49800  0.93901  0.07193  Biso   1.000  O
  O29      1.0000 0.23554  0.32553  0.63741  Biso   1.000  O
  O30      1.0000 0.31120  0.39565  0.54711  Biso   1.000  O
  O31      1.0000 0.93685  0.31903  0.07712  Biso   1.000  O
  O32      1.0000 0.94768  0.24141  0.07601  Biso   1.000  O
  O33      1.0000 0.04442  0.29765  0.66809  Biso   1.000  O
  O34      1.0000 0.02832  0.35808  0.59190  Biso   1.000  O
  O35      1.0000 0.30958  0.45148  0.93530  Biso   1.000  O
  O36      1.0000 0.23319  0.35996  0.95041  Biso   1.000  O
  O37      1.0000 0.02808  0.41299  0.96521  Biso   1.000  O
  O38      1.0000 0.04088  0.33539  0.96695  Biso   1.000  O
  O39      1.0000 0.96965  0.11644  0.32461  Biso   1.000  O
  O40      1.0000 0.98028  0.11075  0.24327  Biso   1.000  O
  O41      1.0000 0.95786  0.20072  0.98092  Biso   1.000  O
  O42      1.0000 0.92807  0.43007  0.01094  Biso   1.000  O
  O43      1.0000 0.03706  0.67447  0.08999  Biso   1.000  O
  O44      1.0000 0.05724  0.60435  0.08445  Biso   1.000  O
  O45      1.0000 0.60385  0.68097  0.38218  Biso   1.000  O
  O46      1.0000 0.68258  0.75859  0.29373  Biso   1.000  O
  O47      1.0000 0.03426  0.70235  0.25323  Biso   1.000  O
  O48      1.0000 0.05002  0.64192  0.32976  Biso   1.000  O
  O49      1.0000 0.61322  0.54852  0.14190  Biso   1.000  O
  O50      1.0000 0.68963  0.64004  0.12677  Biso   1.000  O
  O51      1.0000 0.62180  0.58701  0.38491  Biso   1.000  O
  O52      1.0000 0.69766  0.66461  0.29451  Biso   1.000  O
  O53      1.0000 0.55895  0.88356  0.14679  Biso   1.000  O
  O54      1.0000 0.64598  0.88925  0.13047  Biso   1.000  O
  O55      1.0000 0.81836  0.79928  0.24286  Biso   1.000  O
  O56      1.0000 0.55899  0.56993  0.50200  Biso   1.000  O
  O57      1.0000 0.63741  0.87295  0.03706  Biso   1.000  O
  O58      1.0000 0.54711  0.85831  0.05724  Biso   1.000  O
  O59      1.0000 0.07712  0.01397  0.60385  Biso   1.000  O
  O60      1.0000 0.07601  0.02369  0.68258  Biso   1.000  O
  O61      1.0000 0.66809  0.71251  0.03426  Biso   1.000  O
  O62      1.0000 0.59190  0.62022  0.05002  Biso   1.000  O
  O63      1.0000 0.93530  0.24488  0.61322  Biso   1.000  O
  O64      1.0000 0.95041  0.18360  0.68963  Biso   1.000  O
  O65      1.0000 0.96521  0.99329  0.62180  Biso   1.000  O
  O66      1.0000 0.96695  0.00783  0.69766  Biso   1.000  O
  O67      1.0000 0.32461  0.29426  0.55895  Biso   1.000  O
  O68      1.0000 0.24327  0.22355  0.64598  Biso   1.000  O
  O69      1.0000 0.98092  0.93878  0.81836  Biso   1.000  O
  O70      1.0000 0.01094  0.93901  0.55899  Biso   1.000  O
  O71      1.0000 0.08999  0.12705  0.23554  Biso   1.000  O
  O72      1.0000 0.08445  0.14169  0.31120  Biso   1.000  O
  O73      1.0000 0.38218  0.98603  0.93685  Biso   1.000  O
  O74      1.0000 0.29373  0.97631  0.94768  Biso   1.000  O
  O75      1.0000 0.25323  0.28749  0.04442  Biso   1.000  O
  O76      1.0000 0.32976  0.37978  0.02832  Biso   1.000  O
  O77      1.0000 0.14190  0.75512  0.30958  Biso   1.000  O
  O78      1.0000 0.12677  0.81640  0.23319  Biso   1.000  O
  O79      1.0000 0.38491  0.00671  0.02808  Biso   1.000  O
  O80      1.0000 0.29451  0.99217  0.04088  Biso   1.000  O
  O81      1.0000 0.14679  0.70574  0.96965  Biso   1.000  O
  O82      1.0000 0.13047  0.77645  0.98028  Biso   1.000  O
  O83      1.0000 0.24286  0.06122  0.95786  Biso   1.000  O
  O84      1.0000 0.50200  0.06099  0.92807  Biso   1.000  O
  O85      1.0000 0.76446  0.67447  0.36259  Biso   1.000  O
  O86      1.0000 0.68880  0.60435  0.45289  Biso   1.000  O
  O87      1.0000 0.06315  0.68097  0.92288  Biso   1.000  O
  O88      1.0000 0.05232  0.75859  0.92399  Biso   1.000  O
  O89      1.0000 0.95558  0.70235  0.33191  Biso   1.000  O
  O90      1.0000 0.97168  0.64192  0.40810  Biso   1.000  O
  O91      1.0000 0.69042  0.54852  0.06470  Biso   1.000  O
  O92      1.0000 0.76681  0.64004  0.04959  Biso   1.000  O
  O93      1.0000 0.97192  0.58701  0.03479  Biso   1.000  O
  O94      1.0000 0.95912  0.66461  0.03305  Biso   1.000  O
  O95      1.0000 0.03035  0.88356  0.67539  Biso   1.000  O
  O96      1.0000 0.01972  0.88925  0.75673  Biso   1.000  O
  O97      1.0000 0.04214  0.79928  0.01908  Biso   1.000  O
  O98      1.0000 0.07193  0.56993  0.98906  Biso   1.000  O
  O99      1.0000 0.96294  0.32553  0.91001  Biso   1.000  O
  O100     1.0000 0.94276  0.39565  0.91555  Biso   1.000  O
  O101     1.0000 0.39615  0.31903  0.61782  Biso   1.000  O
  O102     1.0000 0.31742  0.24141  0.70627  Biso   1.000  O
  O103     1.0000 0.96574  0.29765  0.74677  Biso   1.000  O
  O104     1.0000 0.94998  0.35808  0.67024  Biso   1.000  O
  O105     1.0000 0.38678  0.45148  0.85810  Biso   1.000  O
  O106     1.0000 0.31037  0.35996  0.87323  Biso   1.000  O
  O107     1.0000 0.37820  0.41299  0.61509  Biso   1.000  O
  O108     1.0000 0.30234  0.33539  0.70549  Biso   1.000  O
  O109     1.0000 0.44105  0.11644  0.85321  Biso   1.000  O
  O110     1.0000 0.35402  0.11075  0.86953  Biso   1.000  O
  O111     1.0000 0.18164  0.20072  0.75714  Biso   1.000  O
  O112     1.0000 0.44101  0.43007  0.49800  Biso   1.000  O
  O113     1.0000 0.20170  0.22700  0.97470  Biso   1.000  O
  O114     1.0000 0.43830  0.51190  0.92640  Biso   1.000  O
  O115     1.0000 0.79830  0.77300  0.02530  Biso   1.000  O
  O116     1.0000 0.56170  0.48810  0.07360  Biso   1.000  O
  O117     1.0000 0.97470  0.17640  0.79830  Biso   1.000  O
  O118     1.0000 0.92640  0.36470  0.56170  Biso   1.000  O
  O119     1.0000 0.02530  0.82360  0.20170  Biso   1.000  O
  O120     1.0000 0.07360  0.63530  0.43830  Biso   1.000  O
