data_image0
_cell_length_a       23.275
_cell_length_b       25.486
_cell_length_c       43.9645
_cell_angle_alpha    90
_cell_angle_beta     90.6237
_cell_angle_gamma    90

_symmetry_space_group_name_H-M    P 1
_symmetry_int_tables_number       1

loop_
  _symmetry_equiv_pos_as_xyz
  'x, y, z'

loop_
  _atom_site_label
  _atom_site_occupancy
  _atom_site_fract_x
  _atom_site_fract_y
  _atom_site_fract_z
  _atom_site_thermal_displace_type
  _atom_site_B_iso_or_equiv
  _atom_site_type_symbol
  Zn1      1.0000 0.68650  0.21585  0.83557  Biso   1.000  Zn
  Zn2      1.0000 0.76247  0.12238  0.80195  Biso   1.000  Zn
  Zn3      1.0000 0.82220  0.22278  0.83394  Biso   1.000  Zn
  Zn4      1.0000 0.76721  0.13471  0.87242  Biso   1.000  Zn
  Zn5      1.0000 0.18650  0.28415  0.33557  Biso   1.000  Zn
  Zn6      1.0000 0.26247  0.37762  0.30195  Biso   1.000  Zn
  Zn7      1.0000 0.32220  0.27722  0.33394  Biso   1.000  Zn
  Zn8      1.0000 0.26721  0.36529  0.37242  Biso   1.000  Zn
  H1       1.0000 0.70290  0.03900  0.76870  Biso   1.000  H
  H2       1.0000 0.68230  0.92990  0.77020  Biso   1.000  H
  H3       1.0000 0.67010  0.97000  0.74330  Biso   1.000  H
  H4       1.0000 0.67010  0.88080  0.73570  Biso   1.000  H
  H5       1.0000 0.73820  0.88820  0.73360  Biso   1.000  H
  H6       1.0000 0.69650  0.91990  0.71100  Biso   1.000  H
  H7       1.0000 0.79630  0.90960  0.76510  Biso   1.000  H
  H8       1.0000 0.82730  0.95260  0.74650  Biso   1.000  H
  H9       1.0000 0.87200  0.91360  0.76020  Biso   1.000  H
  H10      1.0000 0.84480  0.91040  0.79340  Biso   1.000  H
  H11      1.0000 0.87400  0.96370  0.78210  Biso   1.000  H
  H12      1.0000 0.66940  0.13760  0.95380  Biso   1.000  H
  H13      1.0000 0.63100  0.28520  0.92220  Biso   1.000  H
  H14      1.0000 0.63960  0.10690  0.99840  Biso   1.000  H
  H15      1.0000 0.57470  0.12500  0.00390  Biso   1.000  H
  H16      1.0000 0.62540  0.14750  0.02510  Biso   1.000  H
  H17      1.0000 0.52670  0.32340  0.96740  Biso   1.000  H
  H18      1.0000 0.56890  0.33960  0.94050  Biso   1.000  H
  H19      1.0000 0.58740  0.34990  0.97510  Biso   1.000  H
  H20      1.0000 0.41870  0.21140  0.04210  Biso   1.000  H
  H21      1.0000 0.38660  0.22020  0.09300  Biso   1.000  H
  H22      1.0000 0.62910  0.32540  0.13420  Biso   1.000  H
  H23      1.0000 0.65650  0.31470  0.08020  Biso   1.000  H
  H24      1.0000 0.42560  0.23390  0.25790  Biso   1.000  H
  H25      1.0000 0.36790  0.37130  0.22940  Biso   1.000  H
  H26      1.0000 0.47720  0.18630  0.18810  Biso   1.000  H
  H27      1.0000 0.47550  0.17370  0.22380  Biso   1.000  H
  H28      1.0000 0.52830  0.20580  0.21010  Biso   1.000  H
  H29      1.0000 0.45770  0.38940  0.16830  Biso   1.000  H
  H30      1.0000 0.39820  0.40930  0.18210  Biso   1.000  H
  H31      1.0000 0.39810  0.36780  0.15480  Biso   1.000  H
  H32      1.0000 0.61420  0.26380  0.75160  Biso   1.000  H
  H33      1.0000 0.62960  0.10770  0.73200  Biso   1.000  H
  H34      1.0000 0.60910  0.31530  0.68600  Biso   1.000  H
  H35      1.0000 0.56980  0.32400  0.71520  Biso   1.000  H
  H36      1.0000 0.54160  0.30350  0.68400  Biso   1.000  H
  H37      1.0000 0.54510  0.09750  0.67390  Biso   1.000  H
  H38      1.0000 0.60690  0.07350  0.68180  Biso   1.000  H
  H39      1.0000 0.59960  0.11400  0.65420  Biso   1.000  H
  H40      1.0000 0.66220  0.25090  0.58780  Biso   1.000  H
  H41      1.0000 0.63300  0.26310  0.53740  Biso   1.000  H
  H42      1.0000 0.37490  0.18220  0.57150  Biso   1.000  H
  H43      1.0000 0.40450  0.18050  0.62530  Biso   1.000  H
  H44      1.0000 0.42090  0.21680  0.40780  Biso   1.000  H
  H45      1.0000 0.38570  0.35750  0.44400  Biso   1.000  H
  H46      1.0000 0.51340  0.16770  0.46310  Biso   1.000  H
  H47      1.0000 0.47540  0.15270  0.43390  Biso   1.000  H
  H48      1.0000 0.44890  0.14760  0.46720  Biso   1.000  H
  H49      1.0000 0.43650  0.38760  0.48840  Biso   1.000  H
  H50      1.0000 0.47430  0.34770  0.50840  Biso   1.000  H
  H51      1.0000 0.40580  0.34770  0.51120  Biso   1.000  H
  H52      1.0000 0.66490  0.37850  0.83180  Biso   1.000  H
  H53      1.0000 0.82730  0.38560  0.85440  Biso   1.000  H
  H54      1.0000 0.60340  0.45530  0.83040  Biso   1.000  H
  H55      1.0000 0.63790  0.50440  0.81710  Biso   1.000  H
  H56      1.0000 0.62230  0.50240  0.85240  Biso   1.000  H
  H57      1.0000 0.85600  0.51160  0.84750  Biso   1.000  H
  H58      1.0000 0.87400  0.46360  0.86910  Biso   1.000  H
  H59      1.0000 0.83550  0.51040  0.88210  Biso   1.000  H
  H60      1.0000 0.75360  0.63160  0.77660  Biso   1.000  H
  H61      1.0000 0.74990  0.72420  0.77660  Biso   1.000  H
  H62      1.0000 0.70610  0.72170  0.92150  Biso   1.000  H
  H63      1.0000 0.71590  0.63030  0.92140  Biso   1.000  H
  H64      1.0000 0.63090  0.88930  0.80230  Biso   1.000  H
  H65      1.0000 0.60460  0.87690  0.83500  Biso   1.000  H
  H66      1.0000 0.64710  0.83570  0.81940  Biso   1.000  H
  H67      1.0000 0.66510  0.97470  0.82690  Biso   1.000  H
  H68      1.0000 0.81420  0.84290  0.89380  Biso   1.000  H
  H69      1.0000 0.85770  0.88950  0.88590  Biso   1.000  H
  H70      1.0000 0.84590  0.84380  0.86170  Biso   1.000  H
  H71      1.0000 0.81030  0.96880  0.87360  Biso   1.000  H
  H72      1.0000 0.20290  0.46100  0.26870  Biso   1.000  H
  H73      1.0000 0.18230  0.57010  0.27020  Biso   1.000  H
  H74      1.0000 0.17010  0.53000  0.24330  Biso   1.000  H
  H75      1.0000 0.17010  0.61920  0.23570  Biso   1.000  H
  H76      1.0000 0.23820  0.61180  0.23360  Biso   1.000  H
  H77      1.0000 0.19650  0.58010  0.21100  Biso   1.000  H
  H78      1.0000 0.29630  0.59040  0.26510  Biso   1.000  H
  H79      1.0000 0.32730  0.54740  0.24650  Biso   1.000  H
  H80      1.0000 0.37200  0.58640  0.26020  Biso   1.000  H
  H81      1.0000 0.34480  0.58960  0.29340  Biso   1.000  H
  H82      1.0000 0.37400  0.53630  0.28210  Biso   1.000  H
  H83      1.0000 0.16940  0.36240  0.45380  Biso   1.000  H
  H84      1.0000 0.13100  0.21480  0.42220  Biso   1.000  H
  H85      1.0000 0.13960  0.39310  0.49840  Biso   1.000  H
  H86      1.0000 0.07470  0.37500  0.50390  Biso   1.000  H
  H87      1.0000 0.12540  0.35250  0.52510  Biso   1.000  H
  H88      1.0000 0.02670  0.17660  0.46740  Biso   1.000  H
  H89      1.0000 0.06890  0.16040  0.44050  Biso   1.000  H
  H90      1.0000 0.08740  0.15010  0.47510  Biso   1.000  H
  H91      1.0000 0.91870  0.28860  0.54210  Biso   1.000  H
  H92      1.0000 0.88660  0.27980  0.59300  Biso   1.000  H
  H93      1.0000 0.12910  0.17460  0.63420  Biso   1.000  H
  H94      1.0000 0.15650  0.18530  0.58020  Biso   1.000  H
  H95      1.0000 0.92560  0.26610  0.75790  Biso   1.000  H
  H96      1.0000 0.86790  0.12870  0.72940  Biso   1.000  H
  H97      1.0000 0.97720  0.31370  0.68810  Biso   1.000  H
  H98      1.0000 0.97550  0.32630  0.72380  Biso   1.000  H
  H99      1.0000 0.02830  0.29420  0.71010  Biso   1.000  H
  H100     1.0000 0.95770  0.11060  0.66830  Biso   1.000  H
  H101     1.0000 0.89820  0.09070  0.68210  Biso   1.000  H
  H102     1.0000 0.89810  0.13220  0.65480  Biso   1.000  H
  H103     1.0000 0.11420  0.23620  0.25160  Biso   1.000  H
  H104     1.0000 0.12960  0.39230  0.23200  Biso   1.000  H
  H105     1.0000 0.10910  0.18470  0.18600  Biso   1.000  H
  H106     1.0000 0.06980  0.17600  0.21520  Biso   1.000  H
  H107     1.0000 0.04160  0.19650  0.18400  Biso   1.000  H
  H108     1.0000 0.04510  0.40250  0.17390  Biso   1.000  H
  H109     1.0000 0.10690  0.42650  0.18180  Biso   1.000  H
  H110     1.0000 0.09960  0.38600  0.15420  Biso   1.000  H
  H111     1.0000 0.16220  0.24910  0.08780  Biso   1.000  H
  H112     1.0000 0.13300  0.23690  0.03740  Biso   1.000  H
  H113     1.0000 0.87490  0.31780  0.07150  Biso   1.000  H
  H114     1.0000 0.90450  0.31950  0.12530  Biso   1.000  H
  H115     1.0000 0.92090  0.28320  0.90780  Biso   1.000  H
  H116     1.0000 0.88570  0.14250  0.94400  Biso   1.000  H
  H117     1.0000 0.01340  0.33230  0.96310  Biso   1.000  H
  H118     1.0000 0.97540  0.34730  0.93390  Biso   1.000  H
  H119     1.0000 0.94890  0.35240  0.96720  Biso   1.000  H
  H120     1.0000 0.93650  0.11240  0.98840  Biso   1.000  H
  H121     1.0000 0.97430  0.15230  0.00840  Biso   1.000  H
  H122     1.0000 0.90580  0.15230  0.01120  Biso   1.000  H
  H123     1.0000 0.16490  0.12150  0.33180  Biso   1.000  H
  H124     1.0000 0.32730  0.11440  0.35440  Biso   1.000  H
  H125     1.0000 0.10340  0.04470  0.33040  Biso   1.000  H
  H126     1.0000 0.13790  0.99560  0.31710  Biso   1.000  H
  H127     1.0000 0.12230  0.99760  0.35240  Biso   1.000  H
  H128     1.0000 0.35600  0.98840  0.34750  Biso   1.000  H
  H129     1.0000 0.37400  0.03640  0.36910  Biso   1.000  H
  H130     1.0000 0.33550  0.98960  0.38210  Biso   1.000  H
  H131     1.0000 0.25360  0.86840  0.27660  Biso   1.000  H
  H132     1.0000 0.24990  0.77580  0.27660  Biso   1.000  H
  H133     1.0000 0.20610  0.77830  0.42150  Biso   1.000  H
  H134     1.0000 0.21590  0.86970  0.42140  Biso   1.000  H
  H135     1.0000 0.13090  0.61070  0.30230  Biso   1.000  H
  H136     1.0000 0.10460  0.62310  0.33500  Biso   1.000  H
  H137     1.0000 0.14710  0.66430  0.31940  Biso   1.000  H
  H138     1.0000 0.16510  0.52530  0.32690  Biso   1.000  H
  H139     1.0000 0.31420  0.65710  0.39380  Biso   1.000  H
  H140     1.0000 0.35770  0.61050  0.38590  Biso   1.000  H
  H141     1.0000 0.34590  0.65620  0.36170  Biso   1.000  H
  H142     1.0000 0.31030  0.53120  0.37360  Biso   1.000  H
  C1       1.0000 0.74133  0.02657  0.76943  Biso   1.000  C
  C2       1.0000 0.69850  0.94450  0.75130  Biso   1.000  C
  C3       1.0000 0.70093  0.90590  0.73163  Biso   1.000  C
  C4       1.0000 0.81200  0.94560  0.76700  Biso   1.000  C
  C5       1.0000 0.85120  0.93320  0.77580  Biso   1.000  C
  C6       1.0000 0.67586  0.19060  0.90116  Biso   1.000  C
  C7       1.0000 0.64721  0.20690  0.92961  Biso   1.000  C
  C8       1.0000 0.64975  0.17010  0.95545  Biso   1.000  C
  C9       1.0000 0.62342  0.18360  0.98162  Biso   1.000  C
  C10      1.0000 0.59980  0.23300  0.98570  Biso   1.000  C
  C11      1.0000 0.59721  0.26710  0.96281  Biso   1.000  C
  C12      1.0000 0.62562  0.25750  0.93632  Biso   1.000  C
  C13      1.0000 0.61503  0.13630  0.00443  Biso   1.000  C
  C14      1.0000 0.56697  0.32610  0.96127  Biso   1.000  C
  C15      1.0000 0.52012  0.23330  0.02032  Biso   1.000  C
  C16      1.0000 0.49632  0.24170  0.05082  Biso   1.000  C
  C17      1.0000 0.53507  0.26480  0.07407  Biso   1.000  C
  C18      1.0000 0.58620  0.27880  0.06550  Biso   1.000  C
  C19      1.0000 0.61340  0.27030  0.03440  Biso   1.000  C
  C20      1.0000 0.44319  0.22610  0.05739  Biso   1.000  C
  C21      1.0000 0.42403  0.23180  0.08773  Biso   1.000  C
  C22      1.0000 0.45902  0.25360  0.10932  Biso   1.000  C
  C23      1.0000 0.51436  0.27140  0.10316  Biso   1.000  C
  C24      1.0000 0.55033  0.29260  0.12543  Biso   1.000  C
  C25      1.0000 0.60416  0.31000  0.11936  Biso   1.000  C
  C26      1.0000 0.62010  0.30220  0.08650  Biso   1.000  C
  C27      1.0000 0.43941  0.25850  0.14091  Biso   1.000  C
  C28      1.0000 0.52778  0.30060  0.15758  Biso   1.000  C
  C29      1.0000 0.44855  0.28892  0.19275  Biso   1.000  C
  C30      1.0000 0.45552  0.24960  0.21382  Biso   1.000  C
  C31      1.0000 0.42284  0.25884  0.24194  Biso   1.000  C
  C32      1.0000 0.38986  0.30062  0.24566  Biso   1.000  C
  C33      1.0000 0.38852  0.34004  0.22532  Biso   1.000  C
  C34      1.0000 0.41991  0.33372  0.19661  Biso   1.000  C
  C35      1.0000 0.48679  0.19960  0.20849  Biso   1.000  C
  C36      1.0000 0.41833  0.37924  0.17333  Biso   1.000  C
  C37      1.0000 0.66072  0.17791  0.77512  Biso   1.000  C
  C38      1.0000 0.62867  0.18429  0.74487  Biso   1.000  C
  C39      1.0000 0.61074  0.23597  0.73734  Biso   1.000  C
  C40      1.0000 0.58697  0.24510  0.70707  Biso   1.000  C
  C41      1.0000 0.58190  0.20092  0.68780  Biso   1.000  C
  C42      1.0000 0.59838  0.15145  0.69688  Biso   1.000  C
  C43      1.0000 0.62033  0.14235  0.72563  Biso   1.000  C
  C44      1.0000 0.57589  0.30217  0.69719  Biso   1.000  C
  C45      1.0000 0.58643  0.10475  0.67463  Biso   1.000  C
  C46      1.0000 0.60109  0.22730  0.63699  Biso   1.000  C
  C47      1.0000 0.58259  0.23222  0.60419  Biso   1.000  C
  C48      1.0000 0.52598  0.21950  0.59638  Biso   1.000  C
  C49      1.0000 0.48551  0.20520  0.61771  Biso   1.000  C
  C50      1.0000 0.50575  0.19950  0.65095  Biso   1.000  C
  C51      1.0000 0.62305  0.24620  0.58215  Biso   1.000  C
  C52      1.0000 0.60615  0.25300  0.55245  Biso   1.000  C
  C53      1.0000 0.55097  0.24510  0.54507  Biso   1.000  C
  C54      1.0000 0.50740  0.22660  0.56550  Biso   1.000  C
  C55      1.0000 0.45053  0.21560  0.55803  Biso   1.000  C
  C56      1.0000 0.41159  0.19440  0.57799  Biso   1.000  C
  C57      1.0000 0.43043  0.19160  0.61003  Biso   1.000  C
  C58      1.0000 0.52966  0.25230  0.51216  Biso   1.000  C
  C59      1.0000 0.43266  0.21960  0.52596  Biso   1.000  C
  C60      1.0000 0.45102  0.26300  0.47562  Biso   1.000  C
  C61      1.0000 0.45300  0.22480  0.45230  Biso   1.000  C
  C62      1.0000 0.42458  0.24087  0.42418  Biso   1.000  C
  C63      1.0000 0.40323  0.29065  0.42133  Biso   1.000  C
  C64      1.0000 0.40493  0.32472  0.44573  Biso   1.000  C
  C65      1.0000 0.43396  0.31280  0.47266  Biso   1.000  C
  C66      1.0000 0.47459  0.16810  0.45429  Biso   1.000  C
  C67      1.0000 0.43793  0.35230  0.49723  Biso   1.000  C
  C68      1.0000 0.75233  0.31625  0.83723  Biso   1.000  C
  C69      1.0000 0.74631  0.37343  0.84241  Biso   1.000  C
  C70      1.0000 0.69717  0.39896  0.83787  Biso   1.000  C
  C71      1.0000 0.68805  0.45441  0.84125  Biso   1.000  C
  C72      1.0000 0.73544  0.48075  0.84824  Biso   1.000  C
  C73      1.0000 0.78869  0.45930  0.85449  Biso   1.000  C
  C74      1.0000 0.79168  0.40267  0.85078  Biso   1.000  C
  C75      1.0000 0.63336  0.48136  0.83476  Biso   1.000  C
  C76      1.0000 0.84360  0.48890  0.86420  Biso   1.000  C
  C77      1.0000 0.74443  0.56448  0.82103  Biso   1.000  C
  C78      1.0000 0.74270  0.62234  0.82100  Biso   1.000  C
  C79      1.0000 0.73529  0.64927  0.84889  Biso   1.000  C
  C80      1.0000 0.72711  0.62133  0.87661  Biso   1.000  C
  C81      1.0000 0.72805  0.56385  0.87695  Biso   1.000  C
  C82      1.0000 0.74829  0.64979  0.79519  Biso   1.000  C
  C83      1.0000 0.74650  0.70532  0.79510  Biso   1.000  C
  C84      1.0000 0.74010  0.73089  0.82140  Biso   1.000  C
  C85      1.0000 0.73098  0.70412  0.84768  Biso   1.000  C
  C86      1.0000 0.72363  0.73230  0.87633  Biso   1.000  C
  C87      1.0000 0.71483  0.70390  0.90313  Biso   1.000  C
  C88      1.0000 0.71894  0.64894  0.90274  Biso   1.000  C
  C89      1.0000 0.74461  0.78824  0.82081  Biso   1.000  C
  C90      1.0000 0.72192  0.78901  0.87622  Biso   1.000  C
  C91      1.0000 0.73368  0.87244  0.85048  Biso   1.000  C
  C92      1.0000 0.63846  0.87307  0.82216  Biso   1.000  C
  C93      1.0000 0.69362  0.95460  0.83722  Biso   1.000  C
  C94      1.0000 0.82866  0.86554  0.87756  Biso   1.000  C
  C95      1.0000 0.77894  0.95125  0.86404  Biso   1.000  C
  C96      1.0000 0.77963  0.89681  0.86413  Biso   1.000  C
  C97      1.0000 0.68972  0.90009  0.83742  Biso   1.000  C
  C98      1.0000 0.73892  0.97991  0.85192  Biso   1.000  C
  C99      1.0000 0.73847  0.03814  0.85437  Biso   1.000  C
  C100     1.0000 0.35401  0.30585  0.27401  Biso   1.000  C
  C101     1.0000 0.36757  0.30520  0.39297  Biso   1.000  C
  C102     1.0000 0.24133  0.47343  0.26943  Biso   1.000  C
  C103     1.0000 0.19850  0.55550  0.25130  Biso   1.000  C
  C104     1.0000 0.20093  0.59410  0.23163  Biso   1.000  C
  C105     1.0000 0.31200  0.55440  0.26700  Biso   1.000  C
  C106     1.0000 0.35120  0.56680  0.27580  Biso   1.000  C
  C107     1.0000 0.17586  0.30940  0.40116  Biso   1.000  C
  C108     1.0000 0.14721  0.29310  0.42961  Biso   1.000  C
  C109     1.0000 0.14975  0.32990  0.45545  Biso   1.000  C
  C110     1.0000 0.12342  0.31640  0.48162  Biso   1.000  C
  C111     1.0000 0.09980  0.26700  0.48570  Biso   1.000  C
  C112     1.0000 0.09721  0.23290  0.46281  Biso   1.000  C
  C113     1.0000 0.12562  0.24250  0.43632  Biso   1.000  C
  C114     1.0000 0.11503  0.36370  0.50443  Biso   1.000  C
  C115     1.0000 0.06697  0.17390  0.46127  Biso   1.000  C
  C116     1.0000 0.02012  0.26670  0.52032  Biso   1.000  C
  C117     1.0000 0.99632  0.25830  0.55082  Biso   1.000  C
  C118     1.0000 0.03507  0.23520  0.57407  Biso   1.000  C
  C119     1.0000 0.08620  0.22120  0.56550  Biso   1.000  C
  C120     1.0000 0.11340  0.22970  0.53440  Biso   1.000  C
  C121     1.0000 0.94319  0.27390  0.55739  Biso   1.000  C
  C122     1.0000 0.92403  0.26820  0.58773  Biso   1.000  C
  C123     1.0000 0.95902  0.24640  0.60932  Biso   1.000  C
  C124     1.0000 0.01436  0.22860  0.60316  Biso   1.000  C
  C125     1.0000 0.05033  0.20740  0.62543  Biso   1.000  C
  C126     1.0000 0.10416  0.19000  0.61936  Biso   1.000  C
  C127     1.0000 0.12010  0.19780  0.58650  Biso   1.000  C
  C128     1.0000 0.93941  0.24150  0.64091  Biso   1.000  C
  C129     1.0000 0.02778  0.19940  0.65758  Biso   1.000  C
  C130     1.0000 0.94855  0.21108  0.69275  Biso   1.000  C
  C131     1.0000 0.95552  0.25040  0.71382  Biso   1.000  C
  C132     1.0000 0.92284  0.24116  0.74194  Biso   1.000  C
  C133     1.0000 0.88986  0.19938  0.74566  Biso   1.000  C
  C134     1.0000 0.88852  0.15996  0.72532  Biso   1.000  C
  C135     1.0000 0.91991  0.16628  0.69661  Biso   1.000  C
  C136     1.0000 0.98679  0.30040  0.70849  Biso   1.000  C
  C137     1.0000 0.91833  0.12076  0.67333  Biso   1.000  C
  C138     1.0000 0.16072  0.32209  0.27512  Biso   1.000  C
  C139     1.0000 0.12867  0.31571  0.24487  Biso   1.000  C
  C140     1.0000 0.11074  0.26403  0.23734  Biso   1.000  C
  C141     1.0000 0.08697  0.25490  0.20707  Biso   1.000  C
  C142     1.0000 0.08190  0.29908  0.18780  Biso   1.000  C
  C143     1.0000 0.09838  0.34855  0.19688  Biso   1.000  C
  C144     1.0000 0.12033  0.35765  0.22563  Biso   1.000  C
  C145     1.0000 0.07589  0.19783  0.19719  Biso   1.000  C
  C146     1.0000 0.08643  0.39525  0.17463  Biso   1.000  C
  C147     1.0000 0.10109  0.27270  0.13699  Biso   1.000  C
  C148     1.0000 0.08259  0.26778  0.10419  Biso   1.000  C
  C149     1.0000 0.02598  0.28050  0.09638  Biso   1.000  C
  C150     1.0000 0.98551  0.29480  0.11771  Biso   1.000  C
  C151     1.0000 0.00575  0.30050  0.15095  Biso   1.000  C
  C152     1.0000 0.12305  0.25380  0.08215  Biso   1.000  C
  C153     1.0000 0.10615  0.24700  0.05245  Biso   1.000  C
  C154     1.0000 0.05097  0.25490  0.04507  Biso   1.000  C
  C155     1.0000 0.00740  0.27340  0.06550  Biso   1.000  C
  C156     1.0000 0.95053  0.28440  0.05803  Biso   1.000  C
  C157     1.0000 0.91159  0.30560  0.07799  Biso   1.000  C
  C158     1.0000 0.93043  0.30840  0.11003  Biso   1.000  C
  C159     1.0000 0.02966  0.24770  0.01216  Biso   1.000  C
  C160     1.0000 0.93266  0.28040  0.02596  Biso   1.000  C
  C161     1.0000 0.95102  0.23700  0.97562  Biso   1.000  C
  C162     1.0000 0.95300  0.27520  0.95230  Biso   1.000  C
  C163     1.0000 0.92458  0.25913  0.92418  Biso   1.000  C
  C164     1.0000 0.90323  0.20935  0.92133  Biso   1.000  C
  C165     1.0000 0.90493  0.17528  0.94573  Biso   1.000  C
  C166     1.0000 0.93396  0.18720  0.97266  Biso   1.000  C
  C167     1.0000 0.97459  0.33190  0.95429  Biso   1.000  C
  C168     1.0000 0.93793  0.14770  0.99723  Biso   1.000  C
  C169     1.0000 0.25233  0.18375  0.33723  Biso   1.000  C
  C170     1.0000 0.24631  0.12657  0.34241  Biso   1.000  C
  C171     1.0000 0.19717  0.10104  0.33787  Biso   1.000  C
  C172     1.0000 0.18805  0.04559  0.34125  Biso   1.000  C
  C173     1.0000 0.23544  0.01925  0.34824  Biso   1.000  C
  C174     1.0000 0.28869  0.04070  0.35449  Biso   1.000  C
  C175     1.0000 0.29168  0.09733  0.35078  Biso   1.000  C
  C176     1.0000 0.13336  0.01864  0.33476  Biso   1.000  C
  C177     1.0000 0.34360  0.01110  0.36420  Biso   1.000  C
  C178     1.0000 0.24443  0.93552  0.32103  Biso   1.000  C
  C179     1.0000 0.24270  0.87766  0.32100  Biso   1.000  C
  C180     1.0000 0.23529  0.85073  0.34889  Biso   1.000  C
  C181     1.0000 0.22711  0.87867  0.37661  Biso   1.000  C
  C182     1.0000 0.22805  0.93615  0.37695  Biso   1.000  C
  C183     1.0000 0.24829  0.85021  0.29519  Biso   1.000  C
  C184     1.0000 0.24650  0.79468  0.29510  Biso   1.000  C
  C185     1.0000 0.24010  0.76911  0.32140  Biso   1.000  C
  C186     1.0000 0.23098  0.79588  0.34768  Biso   1.000  C
  C187     1.0000 0.22363  0.76770  0.37633  Biso   1.000  C
  C188     1.0000 0.21483  0.79610  0.40313  Biso   1.000  C
  C189     1.0000 0.21894  0.85106  0.40274  Biso   1.000  C
  C190     1.0000 0.24461  0.71176  0.32081  Biso   1.000  C
  C191     1.0000 0.22192  0.71099  0.37622  Biso   1.000  C
  C192     1.0000 0.23368  0.62756  0.35048  Biso   1.000  C
  C193     1.0000 0.13846  0.62693  0.32216  Biso   1.000  C
  C194     1.0000 0.19362  0.54540  0.33722  Biso   1.000  C
  C195     1.0000 0.32866  0.63446  0.37756  Biso   1.000  C
  C196     1.0000 0.27894  0.54875  0.36404  Biso   1.000  C
  C197     1.0000 0.27963  0.60319  0.36413  Biso   1.000  C
  C198     1.0000 0.18972  0.59991  0.33742  Biso   1.000  C
  C199     1.0000 0.23892  0.52009  0.35192  Biso   1.000  C
  C200     1.0000 0.23847  0.46186  0.35437  Biso   1.000  C
  C201     1.0000 0.85401  0.19415  0.77401  Biso   1.000  C
  C202     1.0000 0.86757  0.19480  0.89297  Biso   1.000  C
  N1       1.0000 0.57486  0.24790  0.01446  Biso   1.000  N
  N2       1.0000 0.47527  0.28061  0.16267  Biso   1.000  N
  N3       1.0000 0.56190  0.20970  0.65730  Biso   1.000  N
  N4       1.0000 0.47236  0.24244  0.50526  Biso   1.000  N
  N5       1.0000 0.73487  0.53842  0.84867  Biso   1.000  N
  N6       1.0000 0.73150  0.81487  0.84922  Biso   1.000  N
  N7       1.0000 0.74982  0.97417  0.75992  Biso   1.000  N
  N8       1.0000 0.07486  0.25210  0.51446  Biso   1.000  N
  N9       1.0000 0.97527  0.21939  0.66267  Biso   1.000  N
  N10      1.0000 0.06190  0.29030  0.15730  Biso   1.000  N
  N11      1.0000 0.97236  0.25756  0.00526  Biso   1.000  N
  N12      1.0000 0.23487  0.96158  0.34867  Biso   1.000  N
  N13      1.0000 0.23150  0.68513  0.34922  Biso   1.000  N
  N14      1.0000 0.24982  0.52583  0.25992  Biso   1.000  N
  O1       1.0000 0.75869  0.17607  0.83584  Biso   1.000  O
  O2       1.0000 0.66342  0.22061  0.87709  Biso   1.000  O
  O3       1.0000 0.70728  0.15160  0.90052  Biso   1.000  O
  O4       1.0000 0.48890  0.21580  0.99960  Biso   1.000  O
  O5       1.0000 0.66401  0.28100  0.02821  Biso   1.000  O
  O6       1.0000 0.39017  0.24262  0.14867  Biso   1.000  O
  O7       1.0000 0.55724  0.32060  0.17604  Biso   1.000  O
  O8       1.0000 0.65285  0.21362  0.79513  Biso   1.000  O
  O9       1.0000 0.68899  0.13587  0.77848  Biso   1.000  O
  O10      1.0000 0.64982  0.23814  0.64452  Biso   1.000  O
  O11      1.0000 0.47129  0.18621  0.66979  Biso   1.000  O
  O12      1.0000 0.56365  0.26879  0.49225  Biso   1.000  O
  O13      1.0000 0.38644  0.21560  0.51744  Biso   1.000  O
  O14      1.0000 0.80133  0.29529  0.83753  Biso   1.000  O
  O15      1.0000 0.70534  0.29146  0.83406  Biso   1.000  O
  O16      1.0000 0.71679  0.53723  0.89929  Biso   1.000  O
  O17      1.0000 0.75604  0.53894  0.79768  Biso   1.000  O
  O18      1.0000 0.71061  0.81533  0.89913  Biso   1.000  O
  O19      1.0000 0.75550  0.81479  0.79856  Biso   1.000  O
  O20      1.0000 0.37330  0.27747  0.37015  Biso   1.000  O
  O21      1.0000 0.33451  0.34547  0.39561  Biso   1.000  O
  O22      1.0000 0.31254  0.33752  0.27306  Biso   1.000  O
  O23      1.0000 0.36969  0.27875  0.29784  Biso   1.000  O
  O24      1.0000 0.71257  0.06428  0.83308  Biso   1.000  O
  O25      1.0000 0.76785  0.05915  0.87448  Biso   1.000  O
  O26      1.0000 0.77732  0.05765  0.77850  Biso   1.000  O
  O27      1.0000 0.25869  0.32393  0.33584  Biso   1.000  O
  O28      1.0000 0.16342  0.27939  0.37709  Biso   1.000  O
  O29      1.0000 0.20728  0.34840  0.40052  Biso   1.000  O
  O30      1.0000 0.98890  0.28420  0.49960  Biso   1.000  O
  O31      1.0000 0.16401  0.21900  0.52821  Biso   1.000  O
  O32      1.0000 0.89017  0.25738  0.64867  Biso   1.000  O
  O33      1.0000 0.05724  0.17940  0.67604  Biso   1.000  O
  O34      1.0000 0.15285  0.28638  0.29513  Biso   1.000  O
  O35      1.0000 0.18899  0.36413  0.27848  Biso   1.000  O
  O36      1.0000 0.14982  0.26186  0.14452  Biso   1.000  O
  O37      1.0000 0.97129  0.31379  0.16979  Biso   1.000  O
  O38      1.0000 0.06365  0.23121  0.99225  Biso   1.000  O
  O39      1.0000 0.88644  0.28440  0.01744  Biso   1.000  O
  O40      1.0000 0.30133  0.20471  0.33753  Biso   1.000  O
  O41      1.0000 0.20534  0.20854  0.33406  Biso   1.000  O
  O42      1.0000 0.21679  0.96277  0.39929  Biso   1.000  O
  O43      1.0000 0.25604  0.96106  0.29768  Biso   1.000  O
  O44      1.0000 0.21061  0.68467  0.39913  Biso   1.000  O
  O45      1.0000 0.25550  0.68521  0.29856  Biso   1.000  O
  O46      1.0000 0.87330  0.22253  0.87015  Biso   1.000  O
  O47      1.0000 0.83451  0.15453  0.89561  Biso   1.000  O
  O48      1.0000 0.81254  0.16248  0.77306  Biso   1.000  O
  O49      1.0000 0.86969  0.22125  0.79784  Biso   1.000  O
  O50      1.0000 0.21257  0.43572  0.33308  Biso   1.000  O
  O51      1.0000 0.26785  0.44085  0.37448  Biso   1.000  O
  O52      1.0000 0.27732  0.44235  0.27850  Biso   1.000  O
  Zn9      1.0000 0.81350  0.71585  0.66443  Biso   1.000  Zn
  Zn10     1.0000 0.73753  0.62238  0.69805  Biso   1.000  Zn
  Zn11     1.0000 0.67780  0.72278  0.66606  Biso   1.000  Zn
  Zn12     1.0000 0.73279  0.63471  0.62758  Biso   1.000  Zn
  Zn13     1.0000 0.31350  0.78415  0.16443  Biso   1.000  Zn
  Zn14     1.0000 0.23753  0.87762  0.19805  Biso   1.000  Zn
  Zn15     1.0000 0.17780  0.77722  0.16606  Biso   1.000  Zn
  Zn16     1.0000 0.23279  0.86529  0.12758  Biso   1.000  Zn
  H143     1.0000 0.79710  0.53900  0.73130  Biso   1.000  H
  H144     1.0000 0.81770  0.42990  0.72980  Biso   1.000  H
  H145     1.0000 0.82990  0.47000  0.75670  Biso   1.000  H
  H146     1.0000 0.82990  0.38080  0.76430  Biso   1.000  H
  H147     1.0000 0.76180  0.38820  0.76640  Biso   1.000  H
  H148     1.0000 0.80350  0.41990  0.78900  Biso   1.000  H
  H149     1.0000 0.70370  0.40960  0.73490  Biso   1.000  H
  H150     1.0000 0.67270  0.45260  0.75350  Biso   1.000  H
  H151     1.0000 0.62800  0.41360  0.73980  Biso   1.000  H
  H152     1.0000 0.65520  0.41040  0.70660  Biso   1.000  H
  H153     1.0000 0.62600  0.46370  0.71790  Biso   1.000  H
  H154     1.0000 0.83060  0.63760  0.54620  Biso   1.000  H
  H155     1.0000 0.86900  0.78520  0.57780  Biso   1.000  H
  H156     1.0000 0.86040  0.60690  0.50160  Biso   1.000  H
  H157     1.0000 0.92530  0.62500  0.49610  Biso   1.000  H
  H158     1.0000 0.87460  0.64750  0.47490  Biso   1.000  H
  H159     1.0000 0.97330  0.82340  0.53260  Biso   1.000  H
  H160     1.0000 0.93110  0.83960  0.55950  Biso   1.000  H
  H161     1.0000 0.91260  0.84990  0.52490  Biso   1.000  H
  H162     1.0000 0.08130  0.71140  0.45790  Biso   1.000  H
  H163     1.0000 0.11340  0.72020  0.40700  Biso   1.000  H
  H164     1.0000 0.87090  0.82540  0.36580  Biso   1.000  H
  H165     1.0000 0.84350  0.81470  0.41980  Biso   1.000  H
  H166     1.0000 0.07440  0.73390  0.24210  Biso   1.000  H
  H167     1.0000 0.13210  0.87130  0.27060  Biso   1.000  H
  H168     1.0000 0.02280  0.68630  0.31190  Biso   1.000  H
  H169     1.0000 0.02450  0.67370  0.27620  Biso   1.000  H
  H170     1.0000 0.97170  0.70580  0.28990  Biso   1.000  H
  H171     1.0000 0.04230  0.88940  0.33170  Biso   1.000  H
  H172     1.0000 0.10180  0.90930  0.31790  Biso   1.000  H
  H173     1.0000 0.10190  0.86780  0.34520  Biso   1.000  H
  H174     1.0000 0.88580  0.76380  0.74840  Biso   1.000  H
  H175     1.0000 0.87040  0.60770  0.76800  Biso   1.000  H
  H176     1.0000 0.89090  0.81530  0.81400  Biso   1.000  H
  H177     1.0000 0.93020  0.82400  0.78480  Biso   1.000  H
  H178     1.0000 0.95840  0.80350  0.81600  Biso   1.000  H
  H179     1.0000 0.95490  0.59750  0.82610  Biso   1.000  H
  H180     1.0000 0.89310  0.57350  0.81820  Biso   1.000  H
  H181     1.0000 0.90040  0.61400  0.84580  Biso   1.000  H
  H182     1.0000 0.83780  0.75090  0.91220  Biso   1.000  H
  H183     1.0000 0.86700  0.76310  0.96260  Biso   1.000  H
  H184     1.0000 0.12510  0.68220  0.92850  Biso   1.000  H
  H185     1.0000 0.09550  0.68050  0.87470  Biso   1.000  H
  H186     1.0000 0.07910  0.71680  0.09220  Biso   1.000  H
  H187     1.0000 0.11430  0.85750  0.05600  Biso   1.000  H
  H188     1.0000 0.98660  0.66770  0.03690  Biso   1.000  H
  H189     1.0000 0.02460  0.65270  0.06610  Biso   1.000  H
  H190     1.0000 0.05110  0.64760  0.03280  Biso   1.000  H
  H191     1.0000 0.06350  0.88760  0.01160  Biso   1.000  H
  H192     1.0000 0.02570  0.84770  0.99160  Biso   1.000  H
  H193     1.0000 0.09420  0.84770  0.98880  Biso   1.000  H
  H194     1.0000 0.83510  0.87850  0.66820  Biso   1.000  H
  H195     1.0000 0.67270  0.88560  0.64560  Biso   1.000  H
  H196     1.0000 0.89660  0.95530  0.66960  Biso   1.000  H
  H197     1.0000 0.86210  0.00440  0.68290  Biso   1.000  H
  H198     1.0000 0.87770  0.00240  0.64760  Biso   1.000  H
  H199     1.0000 0.64400  0.01160  0.65250  Biso   1.000  H
  H200     1.0000 0.62600  0.96360  0.63090  Biso   1.000  H
  H201     1.0000 0.66450  0.01040  0.61790  Biso   1.000  H
  H202     1.0000 0.74640  0.13160  0.72340  Biso   1.000  H
  H203     1.0000 0.75010  0.22420  0.72340  Biso   1.000  H
  H204     1.0000 0.79390  0.22170  0.57850  Biso   1.000  H
  H205     1.0000 0.78410  0.13030  0.57860  Biso   1.000  H
  H206     1.0000 0.86910  0.38930  0.69770  Biso   1.000  H
  H207     1.0000 0.89540  0.37690  0.66500  Biso   1.000  H
  H208     1.0000 0.85290  0.33570  0.68060  Biso   1.000  H
  H209     1.0000 0.83490  0.47470  0.67310  Biso   1.000  H
  H210     1.0000 0.68580  0.34290  0.60620  Biso   1.000  H
  H211     1.0000 0.64230  0.38950  0.61410  Biso   1.000  H
  H212     1.0000 0.65410  0.34380  0.63830  Biso   1.000  H
  H213     1.0000 0.68970  0.46880  0.62640  Biso   1.000  H
  H214     1.0000 0.29710  0.96100  0.23130  Biso   1.000  H
  H215     1.0000 0.31770  0.07010  0.22980  Biso   1.000  H
  H216     1.0000 0.32990  0.03000  0.25670  Biso   1.000  H
  H217     1.0000 0.32990  0.11920  0.26430  Biso   1.000  H
  H218     1.0000 0.26180  0.11180  0.26640  Biso   1.000  H
  H219     1.0000 0.30350  0.08010  0.28900  Biso   1.000  H
  H220     1.0000 0.20370  0.09040  0.23490  Biso   1.000  H
  H221     1.0000 0.17270  0.04740  0.25350  Biso   1.000  H
  H222     1.0000 0.12800  0.08640  0.23980  Biso   1.000  H
  H223     1.0000 0.15520  0.08960  0.20660  Biso   1.000  H
  H224     1.0000 0.12600  0.03630  0.21790  Biso   1.000  H
  H225     1.0000 0.33060  0.86240  0.04620  Biso   1.000  H
  H226     1.0000 0.36900  0.71480  0.07780  Biso   1.000  H
  H227     1.0000 0.36040  0.89310  0.00160  Biso   1.000  H
  H228     1.0000 0.42530  0.87500  0.99610  Biso   1.000  H
  H229     1.0000 0.37460  0.85250  0.97490  Biso   1.000  H
  H230     1.0000 0.47330  0.67660  0.03260  Biso   1.000  H
  H231     1.0000 0.43110  0.66040  0.05950  Biso   1.000  H
  H232     1.0000 0.41260  0.65010  0.02490  Biso   1.000  H
  H233     1.0000 0.58130  0.78860  0.95790  Biso   1.000  H
  H234     1.0000 0.61340  0.77980  0.90700  Biso   1.000  H
  H235     1.0000 0.37090  0.67460  0.86580  Biso   1.000  H
  H236     1.0000 0.34350  0.68530  0.91980  Biso   1.000  H
  H237     1.0000 0.57440  0.76610  0.74210  Biso   1.000  H
  H238     1.0000 0.63210  0.62870  0.77060  Biso   1.000  H
  H239     1.0000 0.52280  0.81370  0.81190  Biso   1.000  H
  H240     1.0000 0.52450  0.82630  0.77620  Biso   1.000  H
  H241     1.0000 0.47170  0.79420  0.78990  Biso   1.000  H
  H242     1.0000 0.54230  0.61060  0.83170  Biso   1.000  H
  H243     1.0000 0.60180  0.59070  0.81790  Biso   1.000  H
  H244     1.0000 0.60190  0.63220  0.84520  Biso   1.000  H
  H245     1.0000 0.38580  0.73620  0.24840  Biso   1.000  H
  H246     1.0000 0.37040  0.89230  0.26800  Biso   1.000  H
  H247     1.0000 0.39090  0.68470  0.31400  Biso   1.000  H
  H248     1.0000 0.43020  0.67600  0.28480  Biso   1.000  H
  H249     1.0000 0.45840  0.69650  0.31600  Biso   1.000  H
  H250     1.0000 0.45490  0.90250  0.32610  Biso   1.000  H
  H251     1.0000 0.39310  0.92650  0.31820  Biso   1.000  H
  H252     1.0000 0.40040  0.88600  0.34580  Biso   1.000  H
  H253     1.0000 0.33780  0.74910  0.41220  Biso   1.000  H
  H254     1.0000 0.36700  0.73690  0.46260  Biso   1.000  H
  H255     1.0000 0.62510  0.81780  0.42850  Biso   1.000  H
  H256     1.0000 0.59550  0.81950  0.37470  Biso   1.000  H
  H257     1.0000 0.57910  0.78320  0.59220  Biso   1.000  H
  H258     1.0000 0.61430  0.64250  0.55600  Biso   1.000  H
  H259     1.0000 0.48660  0.83230  0.53690  Biso   1.000  H
  H260     1.0000 0.52460  0.84730  0.56610  Biso   1.000  H
  H261     1.0000 0.55110  0.85240  0.53280  Biso   1.000  H
  H262     1.0000 0.56350  0.61240  0.51160  Biso   1.000  H
  H263     1.0000 0.52570  0.65230  0.49160  Biso   1.000  H
  H264     1.0000 0.59420  0.65230  0.48880  Biso   1.000  H
  H265     1.0000 0.33510  0.62150  0.16820  Biso   1.000  H
  H266     1.0000 0.17270  0.61440  0.14560  Biso   1.000  H
  H267     1.0000 0.39660  0.54470  0.16960  Biso   1.000  H
  H268     1.0000 0.36210  0.49560  0.18290  Biso   1.000  H
  H269     1.0000 0.37770  0.49760  0.14760  Biso   1.000  H
  H270     1.0000 0.14400  0.48840  0.15250  Biso   1.000  H
  H271     1.0000 0.12600  0.53640  0.13090  Biso   1.000  H
  H272     1.0000 0.16450  0.48960  0.11790  Biso   1.000  H
  H273     1.0000 0.24640  0.36840  0.22340  Biso   1.000  H
  H274     1.0000 0.25010  0.27580  0.22340  Biso   1.000  H
  H275     1.0000 0.29390  0.27830  0.07850  Biso   1.000  H
  H276     1.0000 0.28410  0.36970  0.07860  Biso   1.000  H
  H277     1.0000 0.36910  0.11070  0.19770  Biso   1.000  H
  H278     1.0000 0.39540  0.12310  0.16500  Biso   1.000  H
  H279     1.0000 0.35290  0.16430  0.18060  Biso   1.000  H
  H280     1.0000 0.33490  0.02530  0.17310  Biso   1.000  H
  H281     1.0000 0.18580  0.15710  0.10620  Biso   1.000  H
  H282     1.0000 0.14230  0.11050  0.11410  Biso   1.000  H
  H283     1.0000 0.15410  0.15620  0.13830  Biso   1.000  H
  H284     1.0000 0.18970  0.03120  0.12640  Biso   1.000  H
  C203     1.0000 0.75867  0.52657  0.73057  Biso   1.000  C
  C204     1.0000 0.80150  0.44450  0.74870  Biso   1.000  C
  C205     1.0000 0.79907  0.40590  0.76837  Biso   1.000  C
  C206     1.0000 0.68800  0.44560  0.73300  Biso   1.000  C
  C207     1.0000 0.64880  0.43320  0.72420  Biso   1.000  C
  C208     1.0000 0.82414  0.69060  0.59884  Biso   1.000  C
  C209     1.0000 0.85279  0.70690  0.57039  Biso   1.000  C
  C210     1.0000 0.85025  0.67010  0.54455  Biso   1.000  C
  C211     1.0000 0.87658  0.68360  0.51838  Biso   1.000  C
  C212     1.0000 0.90020  0.73300  0.51430  Biso   1.000  C
  C213     1.0000 0.90279  0.76710  0.53719  Biso   1.000  C
  C214     1.0000 0.87438  0.75750  0.56368  Biso   1.000  C
  C215     1.0000 0.88497  0.63630  0.49557  Biso   1.000  C
  C216     1.0000 0.93303  0.82610  0.53873  Biso   1.000  C
  C217     1.0000 0.97988  0.73330  0.47968  Biso   1.000  C
  C218     1.0000 0.00368  0.74170  0.44918  Biso   1.000  C
  C219     1.0000 0.96493  0.76480  0.42593  Biso   1.000  C
  C220     1.0000 0.91380  0.77880  0.43450  Biso   1.000  C
  C221     1.0000 0.88660  0.77030  0.46560  Biso   1.000  C
  C222     1.0000 0.05681  0.72610  0.44261  Biso   1.000  C
  C223     1.0000 0.07597  0.73180  0.41227  Biso   1.000  C
  C224     1.0000 0.04098  0.75360  0.39068  Biso   1.000  C
  C225     1.0000 0.98564  0.77140  0.39684  Biso   1.000  C
  C226     1.0000 0.94967  0.79260  0.37457  Biso   1.000  C
  C227     1.0000 0.89584  0.81000  0.38064  Biso   1.000  C
  C228     1.0000 0.87990  0.80220  0.41350  Biso   1.000  C
  C229     1.0000 0.06059  0.75850  0.35909  Biso   1.000  C
  C230     1.0000 0.97222  0.80060  0.34242  Biso   1.000  C
  C231     1.0000 0.05145  0.78892  0.30725  Biso   1.000  C
  C232     1.0000 0.04448  0.74960  0.28618  Biso   1.000  C
  C233     1.0000 0.07716  0.75884  0.25806  Biso   1.000  C
  C234     1.0000 0.11014  0.80062  0.25434  Biso   1.000  C
  C235     1.0000 0.11148  0.84004  0.27468  Biso   1.000  C
  C236     1.0000 0.08009  0.83372  0.30339  Biso   1.000  C
  C237     1.0000 0.01321  0.69960  0.29151  Biso   1.000  C
  C238     1.0000 0.08167  0.87924  0.32667  Biso   1.000  C
  C239     1.0000 0.83928  0.67791  0.72488  Biso   1.000  C
  C240     1.0000 0.87133  0.68429  0.75513  Biso   1.000  C
  C241     1.0000 0.88926  0.73597  0.76266  Biso   1.000  C
  C242     1.0000 0.91303  0.74510  0.79293  Biso   1.000  C
  C243     1.0000 0.91810  0.70092  0.81220  Biso   1.000  C
  C244     1.0000 0.90162  0.65145  0.80312  Biso   1.000  C
  C245     1.0000 0.87967  0.64235  0.77437  Biso   1.000  C
  C246     1.0000 0.92411  0.80217  0.80281  Biso   1.000  C
  C247     1.0000 0.91357  0.60475  0.82537  Biso   1.000  C
  C248     1.0000 0.89891  0.72730  0.86301  Biso   1.000  C
  C249     1.0000 0.91741  0.73222  0.89581  Biso   1.000  C
  C250     1.0000 0.97402  0.71950  0.90362  Biso   1.000  C
  C251     1.0000 0.01449  0.70520  0.88229  Biso   1.000  C
  C252     1.0000 0.99425  0.69950  0.84905  Biso   1.000  C
  C253     1.0000 0.87695  0.74620  0.91785  Biso   1.000  C
  C254     1.0000 0.89385  0.75300  0.94755  Biso   1.000  C
  C255     1.0000 0.94903  0.74510  0.95493  Biso   1.000  C
  C256     1.0000 0.99260  0.72660  0.93450  Biso   1.000  C
  C257     1.0000 0.04947  0.71560  0.94197  Biso   1.000  C
  C258     1.0000 0.08841  0.69440  0.92201  Biso   1.000  C
  C259     1.0000 0.06957  0.69160  0.88997  Biso   1.000  C
  C260     1.0000 0.97034  0.75230  0.98784  Biso   1.000  C
  C261     1.0000 0.06734  0.71960  0.97404  Biso   1.000  C
  C262     1.0000 0.04898  0.76300  0.02438  Biso   1.000  C
  C263     1.0000 0.04700  0.72480  0.04770  Biso   1.000  C
  C264     1.0000 0.07542  0.74087  0.07582  Biso   1.000  C
  C265     1.0000 0.09677  0.79065  0.07867  Biso   1.000  C
  C266     1.0000 0.09507  0.82472  0.05427  Biso   1.000  C
  C267     1.0000 0.06604  0.81280  0.02734  Biso   1.000  C
  C268     1.0000 0.02541  0.66810  0.04571  Biso   1.000  C
  C269     1.0000 0.06207  0.85230  0.00277  Biso   1.000  C
  C270     1.0000 0.74767  0.81625  0.66277  Biso   1.000  C
  C271     1.0000 0.75369  0.87343  0.65759  Biso   1.000  C
  C272     1.0000 0.80283  0.89896  0.66213  Biso   1.000  C
  C273     1.0000 0.81195  0.95441  0.65875  Biso   1.000  C
  C274     1.0000 0.76456  0.98075  0.65176  Biso   1.000  C
  C275     1.0000 0.71131  0.95930  0.64551  Biso   1.000  C
  C276     1.0000 0.70832  0.90267  0.64922  Biso   1.000  C
  C277     1.0000 0.86664  0.98136  0.66524  Biso   1.000  C
  C278     1.0000 0.65640  0.98890  0.63580  Biso   1.000  C
  C279     1.0000 0.75557  0.06448  0.67897  Biso   1.000  C
  C280     1.0000 0.75730  0.12234  0.67900  Biso   1.000  C
  C281     1.0000 0.76471  0.14927  0.65111  Biso   1.000  C
  C282     1.0000 0.77289  0.12133  0.62339  Biso   1.000  C
  C283     1.0000 0.77195  0.06385  0.62305  Biso   1.000  C
  C284     1.0000 0.75171  0.14979  0.70481  Biso   1.000  C
  C285     1.0000 0.75350  0.20532  0.70490  Biso   1.000  C
  C286     1.0000 0.75990  0.23089  0.67860  Biso   1.000  C
  C287     1.0000 0.76902  0.20412  0.65232  Biso   1.000  C
  C288     1.0000 0.77637  0.23230  0.62367  Biso   1.000  C
  C289     1.0000 0.78517  0.20390  0.59687  Biso   1.000  C
  C290     1.0000 0.78106  0.14894  0.59726  Biso   1.000  C
  C291     1.0000 0.75539  0.28824  0.67919  Biso   1.000  C
  C292     1.0000 0.77808  0.28901  0.62378  Biso   1.000  C
  C293     1.0000 0.76632  0.37244  0.64952  Biso   1.000  C
  C294     1.0000 0.86154  0.37307  0.67784  Biso   1.000  C
  C295     1.0000 0.80638  0.45460  0.66278  Biso   1.000  C
  C296     1.0000 0.67134  0.36554  0.62244  Biso   1.000  C
  C297     1.0000 0.72106  0.45125  0.63596  Biso   1.000  C
  C298     1.0000 0.72037  0.39681  0.63587  Biso   1.000  C
  C299     1.0000 0.81028  0.40009  0.66258  Biso   1.000  C
  C300     1.0000 0.76108  0.47991  0.64808  Biso   1.000  C
  C301     1.0000 0.76153  0.53814  0.64563  Biso   1.000  C
  C302     1.0000 0.14599  0.80585  0.22599  Biso   1.000  C
  C303     1.0000 0.13243  0.80520  0.10703  Biso   1.000  C
  C304     1.0000 0.25867  0.97343  0.23057  Biso   1.000  C
  C305     1.0000 0.30150  0.05550  0.24870  Biso   1.000  C
  C306     1.0000 0.29907  0.09410  0.26837  Biso   1.000  C
  C307     1.0000 0.18800  0.05440  0.23300  Biso   1.000  C
  C308     1.0000 0.14880  0.06680  0.22420  Biso   1.000  C
  C309     1.0000 0.32414  0.80940  0.09884  Biso   1.000  C
  C310     1.0000 0.35279  0.79310  0.07039  Biso   1.000  C
  C311     1.0000 0.35025  0.82990  0.04455  Biso   1.000  C
  C312     1.0000 0.37658  0.81640  0.01838  Biso   1.000  C
  C313     1.0000 0.40020  0.76700  0.01430  Biso   1.000  C
  C314     1.0000 0.40279  0.73290  0.03719  Biso   1.000  C
  C315     1.0000 0.37438  0.74250  0.06368  Biso   1.000  C
  C316     1.0000 0.38497  0.86370  0.99557  Biso   1.000  C
  C317     1.0000 0.43303  0.67390  0.03873  Biso   1.000  C
  C318     1.0000 0.47988  0.76670  0.97968  Biso   1.000  C
  C319     1.0000 0.50368  0.75830  0.94918  Biso   1.000  C
  C320     1.0000 0.46493  0.73520  0.92593  Biso   1.000  C
  C321     1.0000 0.41380  0.72120  0.93450  Biso   1.000  C
  C322     1.0000 0.38660  0.72970  0.96560  Biso   1.000  C
  C323     1.0000 0.55681  0.77390  0.94261  Biso   1.000  C
  C324     1.0000 0.57597  0.76820  0.91227  Biso   1.000  C
  C325     1.0000 0.54098  0.74640  0.89068  Biso   1.000  C
  C326     1.0000 0.48564  0.72860  0.89684  Biso   1.000  C
  C327     1.0000 0.44967  0.70740  0.87457  Biso   1.000  C
  C328     1.0000 0.39584  0.69000  0.88064  Biso   1.000  C
  C329     1.0000 0.37990  0.69780  0.91350  Biso   1.000  C
  C330     1.0000 0.56059  0.74150  0.85909  Biso   1.000  C
  C331     1.0000 0.47222  0.69940  0.84242  Biso   1.000  C
  C332     1.0000 0.55145  0.71108  0.80725  Biso   1.000  C
  C333     1.0000 0.54448  0.75040  0.78618  Biso   1.000  C
  C334     1.0000 0.57716  0.74116  0.75806  Biso   1.000  C
  C335     1.0000 0.61014  0.69938  0.75434  Biso   1.000  C
  C336     1.0000 0.61148  0.65996  0.77468  Biso   1.000  C
  C337     1.0000 0.58009  0.66628  0.80339  Biso   1.000  C
  C338     1.0000 0.51321  0.80040  0.79151  Biso   1.000  C
  C339     1.0000 0.58167  0.62076  0.82667  Biso   1.000  C
  C340     1.0000 0.33928  0.82209  0.22488  Biso   1.000  C
  C341     1.0000 0.37133  0.81571  0.25513  Biso   1.000  C
  C342     1.0000 0.38926  0.76403  0.26266  Biso   1.000  C
  C343     1.0000 0.41303  0.75490  0.29293  Biso   1.000  C
  C344     1.0000 0.41810  0.79908  0.31220  Biso   1.000  C
  C345     1.0000 0.40162  0.84855  0.30312  Biso   1.000  C
  C346     1.0000 0.37967  0.85765  0.27437  Biso   1.000  C
  C347     1.0000 0.42411  0.69783  0.30281  Biso   1.000  C
  C348     1.0000 0.41357  0.89525  0.32537  Biso   1.000  C
  C349     1.0000 0.39891  0.77270  0.36301  Biso   1.000  C
  C350     1.0000 0.41741  0.76778  0.39581  Biso   1.000  C
  C351     1.0000 0.47402  0.78050  0.40362  Biso   1.000  C
  C352     1.0000 0.51449  0.79480  0.38229  Biso   1.000  C
  C353     1.0000 0.49425  0.80050  0.34905  Biso   1.000  C
  C354     1.0000 0.37695  0.75380  0.41785  Biso   1.000  C
  C355     1.0000 0.39385  0.74700  0.44755  Biso   1.000  C
  C356     1.0000 0.44903  0.75490  0.45493  Biso   1.000  C
  C357     1.0000 0.49260  0.77340  0.43450  Biso   1.000  C
  C358     1.0000 0.54947  0.78440  0.44197  Biso   1.000  C
  C359     1.0000 0.58841  0.80560  0.42201  Biso   1.000  C
  C360     1.0000 0.56957  0.80840  0.38997  Biso   1.000  C
  C361     1.0000 0.47034  0.74770  0.48784  Biso   1.000  C
  C362     1.0000 0.56734  0.78040  0.47404  Biso   1.000  C
  C363     1.0000 0.54898  0.73700  0.52438  Biso   1.000  C
  C364     1.0000 0.54700  0.77520  0.54770  Biso   1.000  C
  C365     1.0000 0.57542  0.75913  0.57582  Biso   1.000  C
  C366     1.0000 0.59677  0.70935  0.57867  Biso   1.000  C
  C367     1.0000 0.59507  0.67528  0.55427  Biso   1.000  C
  C368     1.0000 0.56604  0.68720  0.52734  Biso   1.000  C
  C369     1.0000 0.52541  0.83190  0.54571  Biso   1.000  C
  C370     1.0000 0.56207  0.64770  0.50277  Biso   1.000  C
  C371     1.0000 0.24767  0.68375  0.16277  Biso   1.000  C
  C372     1.0000 0.25369  0.62657  0.15759  Biso   1.000  C
  C373     1.0000 0.30283  0.60104  0.16213  Biso   1.000  C
  C374     1.0000 0.31195  0.54559  0.15875  Biso   1.000  C
  C375     1.0000 0.26456  0.51925  0.15176  Biso   1.000  C
  C376     1.0000 0.21131  0.54070  0.14551  Biso   1.000  C
  C377     1.0000 0.20832  0.59733  0.14922  Biso   1.000  C
  C378     1.0000 0.36664  0.51864  0.16524  Biso   1.000  C
  C379     1.0000 0.15640  0.51110  0.13580  Biso   1.000  C
  C380     1.0000 0.25557  0.43552  0.17897  Biso   1.000  C
  C381     1.0000 0.25730  0.37766  0.17900  Biso   1.000  C
  C382     1.0000 0.26471  0.35073  0.15111  Biso   1.000  C
  C383     1.0000 0.27289  0.37867  0.12339  Biso   1.000  C
  C384     1.0000 0.27195  0.43615  0.12305  Biso   1.000  C
  C385     1.0000 0.25171  0.35021  0.20481  Biso   1.000  C
  C386     1.0000 0.25350  0.29468  0.20490  Biso   1.000  C
  C387     1.0000 0.25990  0.26911  0.17860  Biso   1.000  C
  C388     1.0000 0.26902  0.29588  0.15232  Biso   1.000  C
  C389     1.0000 0.27637  0.26770  0.12367  Biso   1.000  C
  C390     1.0000 0.28517  0.29610  0.09687  Biso   1.000  C
  C391     1.0000 0.28106  0.35106  0.09726  Biso   1.000  C
  C392     1.0000 0.25539  0.21176  0.17919  Biso   1.000  C
  C393     1.0000 0.27808  0.21099  0.12378  Biso   1.000  C
  C394     1.0000 0.26632  0.12756  0.14952  Biso   1.000  C
  C395     1.0000 0.36154  0.12693  0.17784  Biso   1.000  C
  C396     1.0000 0.30638  0.04540  0.16278  Biso   1.000  C
  C397     1.0000 0.17134  0.13446  0.12244  Biso   1.000  C
  C398     1.0000 0.22106  0.04875  0.13596  Biso   1.000  C
  C399     1.0000 0.22037  0.10319  0.13587  Biso   1.000  C
  C400     1.0000 0.31028  0.09991  0.16258  Biso   1.000  C
  C401     1.0000 0.26108  0.02009  0.14808  Biso   1.000  C
  C402     1.0000 0.26153  0.96186  0.14563  Biso   1.000  C
  C403     1.0000 0.64599  0.69415  0.72599  Biso   1.000  C
  C404     1.0000 0.63243  0.69480  0.60703  Biso   1.000  C
  N15      1.0000 0.92514  0.74790  0.48554  Biso   1.000  N
  N16      1.0000 0.02473  0.78061  0.33733  Biso   1.000  N
  N17      1.0000 0.93810  0.70970  0.84270  Biso   1.000  N
  N18      1.0000 0.02764  0.74244  0.99474  Biso   1.000  N
  N19      1.0000 0.76513  0.03842  0.65133  Biso   1.000  N
  N20      1.0000 0.76850  0.31487  0.65078  Biso   1.000  N
  N21      1.0000 0.75018  0.47417  0.74008  Biso   1.000  N
  N22      1.0000 0.42514  0.75210  0.98554  Biso   1.000  N
  N23      1.0000 0.52473  0.71939  0.83733  Biso   1.000  N
  N24      1.0000 0.43810  0.79030  0.34270  Biso   1.000  N
  N25      1.0000 0.52764  0.75756  0.49474  Biso   1.000  N
  N26      1.0000 0.26513  0.46158  0.15133  Biso   1.000  N
  N27      1.0000 0.26850  0.18513  0.15078  Biso   1.000  N
  N28      1.0000 0.25018  0.02583  0.24008  Biso   1.000  N
  O53      1.0000 0.74131  0.67607  0.66416  Biso   1.000  O
  O54      1.0000 0.83658  0.72061  0.62291  Biso   1.000  O
  O55      1.0000 0.79272  0.65160  0.59948  Biso   1.000  O
  O56      1.0000 0.01110  0.71580  0.50040  Biso   1.000  O
  O57      1.0000 0.83599  0.78100  0.47179  Biso   1.000  O
  O58      1.0000 0.10983  0.74262  0.35133  Biso   1.000  O
  O59      1.0000 0.94276  0.82060  0.32396  Biso   1.000  O
  O60      1.0000 0.84715  0.71362  0.70487  Biso   1.000  O
  O61      1.0000 0.81101  0.63587  0.72152  Biso   1.000  O
  O62      1.0000 0.85018  0.73814  0.85548  Biso   1.000  O
  O63      1.0000 0.02871  0.68621  0.83021  Biso   1.000  O
  O64      1.0000 0.93635  0.76879  0.00775  Biso   1.000  O
  O65      1.0000 0.11356  0.71560  0.98256  Biso   1.000  O
  O66      1.0000 0.69867  0.79529  0.66247  Biso   1.000  O
  O67      1.0000 0.79466  0.79146  0.66594  Biso   1.000  O
  O68      1.0000 0.78321  0.03723  0.60071  Biso   1.000  O
  O69      1.0000 0.74396  0.03894  0.70232  Biso   1.000  O
  O70      1.0000 0.78939  0.31533  0.60087  Biso   1.000  O
  O71      1.0000 0.74450  0.31479  0.70144  Biso   1.000  O
  O72      1.0000 0.12670  0.77747  0.12985  Biso   1.000  O
  O73      1.0000 0.16549  0.84547  0.10439  Biso   1.000  O
  O74      1.0000 0.18746  0.83752  0.22694  Biso   1.000  O
  O75      1.0000 0.13031  0.77875  0.20216  Biso   1.000  O
  O76      1.0000 0.78743  0.56428  0.66692  Biso   1.000  O
  O77      1.0000 0.73215  0.55915  0.62552  Biso   1.000  O
  O78      1.0000 0.72268  0.55765  0.72150  Biso   1.000  O
  O79      1.0000 0.24131  0.82393  0.16416  Biso   1.000  O
  O80      1.0000 0.33658  0.77939  0.12291  Biso   1.000  O
  O81      1.0000 0.29272  0.84840  0.09948  Biso   1.000  O
  O82      1.0000 0.51110  0.78420  0.00040  Biso   1.000  O
  O83      1.0000 0.33599  0.71900  0.97179  Biso   1.000  O
  O84      1.0000 0.60983  0.75738  0.85133  Biso   1.000  O
  O85      1.0000 0.44276  0.67940  0.82396  Biso   1.000  O
  O86      1.0000 0.34715  0.78638  0.20487  Biso   1.000  O
  O87      1.0000 0.31101  0.86413  0.22152  Biso   1.000  O
  O88      1.0000 0.35018  0.76186  0.35548  Biso   1.000  O
  O89      1.0000 0.52871  0.81379  0.33021  Biso   1.000  O
  O90      1.0000 0.43635  0.73121  0.50775  Biso   1.000  O
  O91      1.0000 0.61356  0.78440  0.48256  Biso   1.000  O
  O92      1.0000 0.19867  0.70471  0.16247  Biso   1.000  O
  O93      1.0000 0.29466  0.70854  0.16594  Biso   1.000  O
  O94      1.0000 0.28321  0.46277  0.10071  Biso   1.000  O
  O95      1.0000 0.24396  0.46106  0.20232  Biso   1.000  O
  O96      1.0000 0.28939  0.18467  0.10087  Biso   1.000  O
  O97      1.0000 0.24450  0.18521  0.20144  Biso   1.000  O
  O98      1.0000 0.62670  0.72253  0.62985  Biso   1.000  O
  O99      1.0000 0.66549  0.65453  0.60439  Biso   1.000  O
  O100     1.0000 0.68746  0.66248  0.72694  Biso   1.000  O
  O101     1.0000 0.63031  0.72125  0.70216  Biso   1.000  O
  O102     1.0000 0.28743  0.93572  0.16692  Biso   1.000  O
  O103     1.0000 0.23215  0.94085  0.12552  Biso   1.000  O
  O104     1.0000 0.22268  0.94235  0.22150  Biso   1.000  O
